datafiles/unit/opflow/objective/OF_unittestx600.m
function mpc = OF-unittestx600
mpc.version = '2';
mpc.baseMVA =  100.00;

%% bus data
mpc.bus = [
1 1 0.00 0.00 0.00 0.00 1 1.0000000 -0.000056 138.00 1 1.100 0.900
2 1 0.00 0.00 0.00 10.00 1 1.0000000 -0.000056 138.00 1 1.100 0.900
3 3 0.00 0.00 0.00 0.00 1 1.0000000 0.000001 13.80 1 1.100 0.900
4 1 10.00 10.00 0.00 0.00  1 0.9999990 -0.000113 138.00 1 1.100 0.900
5 1 0.00 0.00 0.00 0.00 1 0.9999990 -0.000113 138.00 1 1.100 0.900
6 1 0.00 0.00 0.00 10.00 1 1.0000000 -0.000056 138.00 1 1.100 0.900
7 2 0.00 0.00 0.00 0.00 1 1.0000000 0.000001 13.80 1 1.100 0.900
8 1 10.00 10.00 0.00 0.00 1 0.9999990 -0.000113 138.00 1 1.100 0.900
9 1 0.00 0.00 0.00 0.00 1 0.9999990 -0.000113 138.00 1 1.100 0.900
10 1 0.00 0.00 0.00 10.00 1 1.0000000 -0.000056 138.00 1 1.100 0.900
11 2 0.00 0.00 0.00 0.00 1 1.0000000 0.000001 13.80 1 1.100 0.900
12 1 10.00 10.00 0.00 0.00 1 0.9999990 -0.000113 138.00 1 1.100 0.900
13 1 0.00 0.00 0.00 0.00 1 0.9999990 -0.000113 138.00 1 1.100 0.900
14 1 0.00 0.00 0.00 10.00 1 1.0000000 -0.000056 138.00 1 1.100 0.900
15 2 0.00 0.00 0.00 0.00 1 1.0000000 0.000001 13.80 1 1.100 0.900
16 1 10.00 10.00 0.00 0.00 1 0.9999990 -0.000113 138.00 1 1.100 0.900
17 1 0.00 0.00 0.00 0.00 1 0.9999990 -0.000113 138.00 1 1.100 0.900
18 1 0.00 0.00 0.00 10.00 1 1.0000000 -0.000056 138.00 1 1.100 0.900
19 2 0.00 0.00 0.00 0.00 1 1.0000000 0.000001 13.80 1 1.100 0.900
20 1 10.00 10.00 0.00 0.00 1 0.9999990 -0.000113 138.00 1 1.100 0.900
21 1 0.00 0.00 0.00 0.00 1 0.9999990 -0.000113 138.00 1 1.100 0.900
22 1 0.00 0.00 0.00 10.00 1 1.0000000 -0.000056 138.00 1 1.100 0.900
23 2 0.00 0.00 0.00 0.00 1 1.0000000 0.000001 13.80 1 1.100 0.900
24 1 10.00 10.00 0.00 0.00 1 0.9999990 -0.000113 138.00 1 1.100 0.900
25 1 0.00 0.00 0.00 0.00 1 0.9999990 -0.000113 138.00 1 1.100 0.900
26 1 0.00 0.00 0.00 10.00 1 1.0000000 -0.000056 138.00 1 1.100 0.900
27 2 0.00 0.00 0.00 0.00 1 1.0000000 0.000001 13.80 1 1.100 0.900
28 1 10.00 10.00 0.00 0.00 1 0.9999990 -0.000113 138.00 1 1.100 0.900
29 1 0.00 0.00 0.00 0.00 1 0.9999990 -0.000113 138.00 1 1.100 0.900
30 1 0.00 0.00 0.00 10.00 1 1.0000000 -0.000056 138.00 1 1.100 0.900
31 2 0.00 0.00 0.00 0.00 1 1.0000000 0.000001 13.80 1 1.100 0.900
32 1 10.00 10.00 0.00 0.00 1 0.9999990 -0.000113 138.00 1 1.100 0.900
33 1 0.00 0.00 0.00 0.00 1 0.9999990 -0.000113 138.00 1 1.100 0.900
34 1 0.00 0.00 0.00 10.00 1 1.0000000 -0.000056 138.00 1 1.100 0.900
35 2 0.00 0.00 0.00 0.00 1 1.0000000 0.000001 13.80 1 1.100 0.900
36 1 10.00 10.00 0.00 0.00 1 0.9999990 -0.000113 138.00 1 1.100 0.900
37 1 0.00 0.00 0.00 0.00 1 0.9999990 -0.000113 138.00 1 1.100 0.900
38 1 0.00 0.00 0.00 10.00 1 1.0000000 -0.000056 138.00 1 1.100 0.900
39 2 0.00 0.00 0.00 0.00 1 1.0000000 0.000001 13.80 1 1.100 0.900
40 1 10.00 10.00 0.00 0.00 1 0.9999990 -0.000113 138.00 1 1.100 0.900
41 1 0.00 0.00 0.00 0.00 1 0.9999990 -0.000113 138.00 1 1.100 0.900
42 1 0.00 0.00 0.00 10.00 1 1.0000000 -0.000056 138.00 1 1.100 0.900
43 2 0.00 0.00 0.00 0.00 1 1.0000000 0.000001 13.80 1 1.100 0.900
44 1 10.00 10.00 0.00 0.00 1 0.9999990 -0.000113 138.00 1 1.100 0.900
45 1 0.00 0.00 0.00 0.00 1 0.9999990 -0.000113 138.00 1 1.100 0.900
46 1 0.00 0.00 0.00 10.00 1 1.0000000 -0.000056 138.00 1 1.100 0.900
47 2 0.00 0.00 0.00 0.00 1 1.0000000 0.000001 13.80 1 1.100 0.900
48 1 10.00 10.00 0.00 0.00 1 0.9999990 -0.000113 138.00 1 1.100 0.900
49 1 0.00 0.00 0.00 0.00 1 0.9999990 -0.000113 138.00 1 1.100 0.900
50 1 0.00 0.00 0.00 10.00 1 1.0000000 -0.000056 138.00 1 1.100 0.900
51 2 0.00 0.00 0.00 0.00 1 1.0000000 0.000001 13.80 1 1.100 0.900
52 1 10.00 10.00 0.00 0.00 1 0.9999990 -0.000113 138.00 1 1.100 0.900
53 1 0.00 0.00 0.00 0.00 1 0.9999990 -0.000113 138.00 1 1.100 0.900
54 1 0.00 0.00 0.00 10.00 1 1.0000000 -0.000056 138.00 1 1.100 0.900
55 2 0.00 0.00 0.00 0.00 1 1.0000000 0.000001 13.80 1 1.100 0.900
56 1 10.00 10.00 0.00 0.00 1 0.9999990 -0.000113 138.00 1 1.100 0.900
57 1 0.00 0.00 0.00 0.00 1 0.9999990 -0.000113 138.00 1 1.100 0.900
58 1 0.00 0.00 0.00 10.00 1 1.0000000 -0.000056 138.00 1 1.100 0.900
59 2 0.00 0.00 0.00 0.00 1 1.0000000 0.000001 13.80 1 1.100 0.900
60 1 10.00 10.00 0.00 0.00 1 0.9999990 -0.000113 138.00 1 1.100 0.900
61 1 0.00 0.00 0.00 0.00 1 0.9999990 -0.000113 138.00 1 1.100 0.900
62 1 0.00 0.00 0.00 10.00 1 1.0000000 -0.000056 138.00 1 1.100 0.900
63 2 0.00 0.00 0.00 0.00 1 1.0000000 0.000001 13.80 1 1.100 0.900
64 1 10.00 10.00 0.00 0.00 1 0.9999990 -0.000113 138.00 1 1.100 0.900
65 1 0.00 0.00 0.00 0.00 1 0.9999990 -0.000113 138.00 1 1.100 0.900
66 1 0.00 0.00 0.00 10.00 1 1.0000000 -0.000056 138.00 1 1.100 0.900
67 2 0.00 0.00 0.00 0.00 1 1.0000000 0.000001 13.80 1 1.100 0.900
68 1 10.00 10.00 0.00 0.00 1 0.9999990 -0.000113 138.00 1 1.100 0.900
69 1 0.00 0.00 0.00 0.00 1 0.9999990 -0.000113 138.00 1 1.100 0.900
70 1 0.00 0.00 0.00 10.00 1 1.0000000 -0.000056 138.00 1 1.100 0.900
71 2 0.00 0.00 0.00 0.00 1 1.0000000 0.000001 13.80 1 1.100 0.900
72 1 10.00 10.00 0.00 0.00 1 0.9999990 -0.000113 138.00 1 1.100 0.900
73 1 0.00 0.00 0.00 0.00 1 0.9999990 -0.000113 138.00 1 1.100 0.900
74 1 0.00 0.00 0.00 10.00 1 1.0000000 -0.000056 138.00 1 1.100 0.900
75 2 0.00 0.00 0.00 0.00 1 1.0000000 0.000001 13.80 1 1.100 0.900
76 1 10.00 10.00 0.00 0.00 1 0.9999990 -0.000113 138.00 1 1.100 0.900
77 1 0.00 0.00 0.00 0.00 1 0.9999990 -0.000113 138.00 1 1.100 0.900
78 1 0.00 0.00 0.00 10.00 1 1.0000000 -0.000056 138.00 1 1.100 0.900
79 2 0.00 0.00 0.00 0.00 1 1.0000000 0.000001 13.80 1 1.100 0.900
80 1 10.00 10.00 0.00 0.00 1 0.9999990 -0.000113 138.00 1 1.100 0.900
81 1 0.00 0.00 0.00 0.00 1 0.9999990 -0.000113 138.00 1 1.100 0.900
82 1 0.00 0.00 0.00 10.00 1 1.0000000 -0.000056 138.00 1 1.100 0.900
83 2 0.00 0.00 0.00 0.00 1 1.0000000 0.000001 13.80 1 1.100 0.900
84 1 10.00 10.00 0.00 0.00 1 0.9999990 -0.000113 138.00 1 1.100 0.900
85 1 0.00 0.00 0.00 0.00 1 0.9999990 -0.000113 138.00 1 1.100 0.900
86 1 0.00 0.00 0.00 10.00 1 1.0000000 -0.000056 138.00 1 1.100 0.900
87 2 0.00 0.00 0.00 0.00 1 1.0000000 0.000001 13.80 1 1.100 0.900
88 1 10.00 10.00 0.00 0.00 1 0.9999990 -0.000113 138.00 1 1.100 0.900
89 1 0.00 0.00 0.00 0.00 1 0.9999990 -0.000113 138.00 1 1.100 0.900
90 1 0.00 0.00 0.00 10.00 1 1.0000000 -0.000056 138.00 1 1.100 0.900
91 2 0.00 0.00 0.00 0.00 1 1.0000000 0.000001 13.80 1 1.100 0.900
92 1 10.00 10.00 0.00 0.00 1 0.9999990 -0.000113 138.00 1 1.100 0.900
93 1 0.00 0.00 0.00 0.00 1 0.9999990 -0.000113 138.00 1 1.100 0.900
94 1 0.00 0.00 0.00 10.00 1 1.0000000 -0.000056 138.00 1 1.100 0.900
95 2 0.00 0.00 0.00 0.00 1 1.0000000 0.000001 13.80 1 1.100 0.900
96 1 10.00 10.00 0.00 0.00 1 0.9999990 -0.000113 138.00 1 1.100 0.900
97 1 0.00 0.00 0.00 0.00 1 0.9999990 -0.000113 138.00 1 1.100 0.900
98 1 0.00 0.00 0.00 10.00 1 1.0000000 -0.000056 138.00 1 1.100 0.900
99 2 0.00 0.00 0.00 0.00 1 1.0000000 0.000001 13.80 1 1.100 0.900
100 1 10.00 10.00 0.00 0.00 1 0.9999990 -0.000113 138.00 1 1.100 0.900
101 1 0.00 0.00 0.00 0.00 1 0.9999990 -0.000113 138.00 1 1.100 0.900
102 1 0.00 0.00 0.00 10.00 1 1.0000000 -0.000056 138.00 1 1.100 0.900
103 2 0.00 0.00 0.00 0.00 1 1.0000000 0.000001 13.80 1 1.100 0.900
104 1 10.00 10.00 0.00 0.00 1 0.9999990 -0.000113 138.00 1 1.100 0.900
105 1 0.00 0.00 0.00 0.00 1 0.9999990 -0.000113 138.00 1 1.100 0.900
106 1 0.00 0.00 0.00 10.00 1 1.0000000 -0.000056 138.00 1 1.100 0.900
107 2 0.00 0.00 0.00 0.00 1 1.0000000 0.000001 13.80 1 1.100 0.900
108 1 10.00 10.00 0.00 0.00 1 0.9999990 -0.000113 138.00 1 1.100 0.900
109 1 0.00 0.00 0.00 0.00 1 0.9999990 -0.000113 138.00 1 1.100 0.900
110 1 0.00 0.00 0.00 10.00 1 1.0000000 -0.000056 138.00 1 1.100 0.900
111 2 0.00 0.00 0.00 0.00 1 1.0000000 0.000001 13.80 1 1.100 0.900
112 1 10.00 10.00 0.00 0.00 1 0.9999990 -0.000113 138.00 1 1.100 0.900
113 1 0.00 0.00 0.00 0.00 1 0.9999990 -0.000113 138.00 1 1.100 0.900
114 1 0.00 0.00 0.00 10.00 1 1.0000000 -0.000056 138.00 1 1.100 0.900
115 2 0.00 0.00 0.00 0.00 1 1.0000000 0.000001 13.80 1 1.100 0.900
116 1 10.00 10.00 0.00 0.00 1 0.9999990 -0.000113 138.00 1 1.100 0.900
117 1 0.00 0.00 0.00 0.00 1 0.9999990 -0.000113 138.00 1 1.100 0.900
118 1 0.00 0.00 0.00 10.00 1 1.0000000 -0.000056 138.00 1 1.100 0.900
119 2 0.00 0.00 0.00 0.00 1 1.0000000 0.000001 13.80 1 1.100 0.900
120 1 10.00 10.00 0.00 0.00 1 0.9999990 -0.000113 138.00 1 1.100 0.900
121 1 0.00 0.00 0.00 0.00 1 0.9999990 -0.000113 138.00 1 1.100 0.900
122 1 0.00 0.00 0.00 10.00 1 1.0000000 -0.000056 138.00 1 1.100 0.900
123 2 0.00 0.00 0.00 0.00 1 1.0000000 0.000001 13.80 1 1.100 0.900
124 1 10.00 10.00 0.00 0.00 1 0.9999990 -0.000113 138.00 1 1.100 0.900
125 1 0.00 0.00 0.00 0.00 1 0.9999990 -0.000113 138.00 1 1.100 0.900
126 1 0.00 0.00 0.00 10.00 1 1.0000000 -0.000056 138.00 1 1.100 0.900
127 2 0.00 0.00 0.00 0.00 1 1.0000000 0.000001 13.80 1 1.100 0.900
128 1 10.00 10.00 0.00 0.00 1 0.9999990 -0.000113 138.00 1 1.100 0.900
129 1 0.00 0.00 0.00 0.00 1 0.9999990 -0.000113 138.00 1 1.100 0.900
130 1 0.00 0.00 0.00 10.00 1 1.0000000 -0.000056 138.00 1 1.100 0.900
131 2 0.00 0.00 0.00 0.00 1 1.0000000 0.000001 13.80 1 1.100 0.900
132 1 10.00 10.00 0.00 0.00 1 0.9999990 -0.000113 138.00 1 1.100 0.900
133 1 0.00 0.00 0.00 0.00 1 0.9999990 -0.000113 138.00 1 1.100 0.900
134 1 0.00 0.00 0.00 10.00 1 1.0000000 -0.000056 138.00 1 1.100 0.900
135 2 0.00 0.00 0.00 0.00 1 1.0000000 0.000001 13.80 1 1.100 0.900
136 1 10.00 10.00 0.00 0.00 1 0.9999990 -0.000113 138.00 1 1.100 0.900
137 1 0.00 0.00 0.00 0.00 1 0.9999990 -0.000113 138.00 1 1.100 0.900
138 1 0.00 0.00 0.00 10.00 1 1.0000000 -0.000056 138.00 1 1.100 0.900
139 2 0.00 0.00 0.00 0.00 1 1.0000000 0.000001 13.80 1 1.100 0.900
140 1 10.00 10.00 0.00 0.00 1 0.9999990 -0.000113 138.00 1 1.100 0.900
141 1 0.00 0.00 0.00 0.00 1 0.9999990 -0.000113 138.00 1 1.100 0.900
142 1 0.00 0.00 0.00 10.00 1 1.0000000 -0.000056 138.00 1 1.100 0.900
143 2 0.00 0.00 0.00 0.00 1 1.0000000 0.000001 13.80 1 1.100 0.900
144 1 10.00 10.00 0.00 0.00 1 0.9999990 -0.000113 138.00 1 1.100 0.900
145 1 0.00 0.00 0.00 0.00 1 0.9999990 -0.000113 138.00 1 1.100 0.900
146 1 0.00 0.00 0.00 10.00 1 1.0000000 -0.000056 138.00 1 1.100 0.900
147 2 0.00 0.00 0.00 0.00 1 1.0000000 0.000001 13.80 1 1.100 0.900
148 1 10.00 10.00 0.00 0.00 1 0.9999990 -0.000113 138.00 1 1.100 0.900
149 1 0.00 0.00 0.00 0.00 1 0.9999990 -0.000113 138.00 1 1.100 0.900
150 1 0.00 0.00 0.00 10.00 1 1.0000000 -0.000056 138.00 1 1.100 0.900
151 2 0.00 0.00 0.00 0.00 1 1.0000000 0.000001 13.80 1 1.100 0.900
152 1 10.00 10.00 0.00 0.00 1 0.9999990 -0.000113 138.00 1 1.100 0.900
153 1 0.00 0.00 0.00 0.00 1 0.9999990 -0.000113 138.00 1 1.100 0.900
154 1 0.00 0.00 0.00 10.00 1 1.0000000 -0.000056 138.00 1 1.100 0.900
155 2 0.00 0.00 0.00 0.00 1 1.0000000 0.000001 13.80 1 1.100 0.900
156 1 10.00 10.00 0.00 0.00 1 0.9999990 -0.000113 138.00 1 1.100 0.900
157 1 0.00 0.00 0.00 0.00 1 0.9999990 -0.000113 138.00 1 1.100 0.900
158 1 0.00 0.00 0.00 10.00 1 1.0000000 -0.000056 138.00 1 1.100 0.900
159 2 0.00 0.00 0.00 0.00 1 1.0000000 0.000001 13.80 1 1.100 0.900
160 1 10.00 10.00 0.00 0.00 1 0.9999990 -0.000113 138.00 1 1.100 0.900
161 1 0.00 0.00 0.00 0.00 1 0.9999990 -0.000113 138.00 1 1.100 0.900
162 1 0.00 0.00 0.00 10.00 1 1.0000000 -0.000056 138.00 1 1.100 0.900
163 2 0.00 0.00 0.00 0.00 1 1.0000000 0.000001 13.80 1 1.100 0.900
164 1 10.00 10.00 0.00 0.00 1 0.9999990 -0.000113 138.00 1 1.100 0.900
165 1 0.00 0.00 0.00 0.00 1 0.9999990 -0.000113 138.00 1 1.100 0.900
166 1 0.00 0.00 0.00 10.00 1 1.0000000 -0.000056 138.00 1 1.100 0.900
167 2 0.00 0.00 0.00 0.00 1 1.0000000 0.000001 13.80 1 1.100 0.900
168 1 10.00 10.00 0.00 0.00 1 0.9999990 -0.000113 138.00 1 1.100 0.900
169 1 0.00 0.00 0.00 0.00 1 0.9999990 -0.000113 138.00 1 1.100 0.900
170 1 0.00 0.00 0.00 10.00 1 1.0000000 -0.000056 138.00 1 1.100 0.900
171 2 0.00 0.00 0.00 0.00 1 1.0000000 0.000001 13.80 1 1.100 0.900
172 1 10.00 10.00 0.00 0.00 1 0.9999990 -0.000113 138.00 1 1.100 0.900
173 1 0.00 0.00 0.00 0.00 1 0.9999990 -0.000113 138.00 1 1.100 0.900
174 1 0.00 0.00 0.00 10.00 1 1.0000000 -0.000056 138.00 1 1.100 0.900
175 2 0.00 0.00 0.00 0.00 1 1.0000000 0.000001 13.80 1 1.100 0.900
176 1 10.00 10.00 0.00 0.00 1 0.9999990 -0.000113 138.00 1 1.100 0.900
177 1 0.00 0.00 0.00 0.00 1 0.9999990 -0.000113 138.00 1 1.100 0.900
178 1 0.00 0.00 0.00 10.00 1 1.0000000 -0.000056 138.00 1 1.100 0.900
179 2 0.00 0.00 0.00 0.00 1 1.0000000 0.000001 13.80 1 1.100 0.900
180 1 10.00 10.00 0.00 0.00 1 0.9999990 -0.000113 138.00 1 1.100 0.900
181 1 0.00 0.00 0.00 0.00 1 0.9999990 -0.000113 138.00 1 1.100 0.900
182 1 0.00 0.00 0.00 10.00 1 1.0000000 -0.000056 138.00 1 1.100 0.900
183 2 0.00 0.00 0.00 0.00 1 1.0000000 0.000001 13.80 1 1.100 0.900
184 1 10.00 10.00 0.00 0.00 1 0.9999990 -0.000113 138.00 1 1.100 0.900
185 1 0.00 0.00 0.00 0.00 1 0.9999990 -0.000113 138.00 1 1.100 0.900
186 1 0.00 0.00 0.00 10.00 1 1.0000000 -0.000056 138.00 1 1.100 0.900
187 2 0.00 0.00 0.00 0.00 1 1.0000000 0.000001 13.80 1 1.100 0.900
188 1 10.00 10.00 0.00 0.00 1 0.9999990 -0.000113 138.00 1 1.100 0.900
189 1 0.00 0.00 0.00 0.00 1 0.9999990 -0.000113 138.00 1 1.100 0.900
190 1 0.00 0.00 0.00 10.00 1 1.0000000 -0.000056 138.00 1 1.100 0.900
191 2 0.00 0.00 0.00 0.00 1 1.0000000 0.000001 13.80 1 1.100 0.900
192 1 10.00 10.00 0.00 0.00 1 0.9999990 -0.000113 138.00 1 1.100 0.900
193 1 0.00 0.00 0.00 0.00 1 0.9999990 -0.000113 138.00 1 1.100 0.900
194 1 0.00 0.00 0.00 10.00 1 1.0000000 -0.000056 138.00 1 1.100 0.900
195 2 0.00 0.00 0.00 0.00 1 1.0000000 0.000001 13.80 1 1.100 0.900
196 1 10.00 10.00 0.00 0.00 1 0.9999990 -0.000113 138.00 1 1.100 0.900
197 1 0.00 0.00 0.00 0.00 1 0.9999990 -0.000113 138.00 1 1.100 0.900
198 1 0.00 0.00 0.00 10.00 1 1.0000000 -0.000056 138.00 1 1.100 0.900
199 2 0.00 0.00 0.00 0.00 1 1.0000000 0.000001 13.80 1 1.100 0.900
200 1 10.00 10.00 0.00 0.00 1 0.9999990 -0.000113 138.00 1 1.100 0.900
...
];

%% generator data
mpc.gen = [
3 10.00 0.00 9900.00 -9900.00 1.0000 100.00 1 10.00 10.00 0.00 0.00 0.00 0.00 0.00 0.00 0 0 0 010.0000
7 10.00 0.00 9900.00 -9900.00 1.0000 100.00 1 10.00 10.00 0.00 0.00 0.00 0.00 0.00 0.00 0 0 0 010.0000
11 10.00 0.00 9900.00 -9900.00 1.0000 100.00 1 10.00 10.00 0.00 0.00 0.00 0.00 0.00 0.00 0 0 0 010.0000
15 10.00 0.00 9900.00 -9900.00 1.0000 100.00 1 10.00 10.00 0.00 0.00 0.00 0.00 0.00 0.00 0 0 0 010.0000
19 10.00 0.00 9900.00 -9900.00 1.0000 100.00 1 10.00 10.00 0.00 0.00 0.00 0.00 0.00 0.00 0 0 0 010.0000
23 10.00 0.00 9900.00 -9900.00 1.0000 100.00 1 10.00 10.00 0.00 0.00 0.00 0.00 0.00 0.00 0 0 0 010.0000
27 10.00 0.00 9900.00 -9900.00 1.0000 100.00 1 10.00 10.00 0.00 0.00 0.00 0.00 0.00 0.00 0 0 0 010.0000
31 10.00 0.00 9900.00 -9900.00 1.0000 100.00 1 10.00 10.00 0.00 0.00 0.00 0.00 0.00 0.00 0 0 0 010.0000
35 10.00 0.00 9900.00 -9900.00 1.0000 100.00 1 10.00 10.00 0.00 0.00 0.00 0.00 0.00 0.00 0 0 0 010.0000
39 10.00 0.00 9900.00 -9900.00 1.0000 100.00 1 10.00 10.00 0.00 0.00 0.00 0.00 0.00 0.00 0 0 0 010.0000
43 10.00 0.00 9900.00 -9900.00 1.0000 100.00 1 10.00 10.00 0.00 0.00 0.00 0.00 0.00 0.00 0 0 0 010.0000
47 10.00 0.00 9900.00 -9900.00 1.0000 100.00 1 10.00 10.00 0.00 0.00 0.00 0.00 0.00 0.00 0 0 0 010.0000
51 10.00 0.00 9900.00 -9900.00 1.0000 100.00 1 10.00 10.00 0.00 0.00 0.00 0.00 0.00 0.00 0 0 0 010.0000
55 10.00 0.00 9900.00 -9900.00 1.0000 100.00 1 10.00 10.00 0.00 0.00 0.00 0.00 0.00 0.00 0 0 0 010.0000
59 10.00 0.00 9900.00 -9900.00 1.0000 100.00 1 10.00 10.00 0.00 0.00 0.00 0.00 0.00 0.00 0 0 0 010.0000
63 10.00 0.00 9900.00 -9900.00 1.0000 100.00 1 10.00 10.00 0.00 0.00 0.00 0.00 0.00 0.00 0 0 0 010.0000
67 10.00 0.00 9900.00 -9900.00 1.0000 100.00 1 10.00 10.00 0.00 0.00 0.00 0.00 0.00 0.00 0 0 0 010.0000
71 10.00 0.00 9900.00 -9900.00 1.0000 100.00 1 10.00 10.00 0.00 0.00 0.00 0.00 0.00 0.00 0 0 0 010.0000
75 10.00 0.00 9900.00 -9900.00 1.0000 100.00 1 10.00 10.00 0.00 0.00 0.00 0.00 0.00 0.00 0 0 0 010.0000
79 10.00 0.00 9900.00 -9900.00 1.0000 100.00 1 10.00 10.00 0.00 0.00 0.00 0.00 0.00 0.00 0 0 0 010.0000
83 10.00 0.00 9900.00 -9900.00 1.0000 100.00 1 10.00 10.00 0.00 0.00 0.00 0.00 0.00 0.00 0 0 0 010.0000
87 10.00 0.00 9900.00 -9900.00 1.0000 100.00 1 10.00 10.00 0.00 0.00 0.00 0.00 0.00 0.00 0 0 0 010.0000
91 10.00 0.00 9900.00 -9900.00 1.0000 100.00 1 10.00 10.00 0.00 0.00 0.00 0.00 0.00 0.00 0 0 0 010.0000
95 10.00 0.00 9900.00 -9900.00 1.0000 100.00 1 10.00 10.00 0.00 0.00 0.00 0.00 0.00 0.00 0 0 0 010.0000
99 10.00 0.00 9900.00 -9900.00 1.0000 100.00 1 10.00 10.00 0.00 0.00 0.00 0.00 0.00 0.00 0 0 0 010.0000
103 10.00 0.00 9900.00 -9900.00 1.0000 100.00 1 10.00 10.00 0.00 0.00 0.00 0.00 0.00 0.00 0 0 0 010.0000
107 10.00 0.00 9900.00 -9900.00 1.0000 100.00 1 10.00 10.00 0.00 0.00 0.00 0.00 0.00 0.00 0 0 0 010.0000
111 10.00 0.00 9900.00 -9900.00 1.0000 100.00 1 10.00 10.00 0.00 0.00 0.00 0.00 0.00 0.00 0 0 0 010.0000
115 10.00 0.00 9900.00 -9900.00 1.0000 100.00 1 10.00 10.00 0.00 0.00 0.00 0.00 0.00 0.00 0 0 0 010.0000
119 10.00 0.00 9900.00 -9900.00 1.0000 100.00 1 10.00 10.00 0.00 0.00 0.00 0.00 0.00 0.00 0 0 0 010.0000
123 10.00 0.00 9900.00 -9900.00 1.0000 100.00 1 10.00 10.00 0.00 0.00 0.00 0.00 0.00 0.00 0 0 0 010.0000
127 10.00 0.00 9900.00 -9900.00 1.0000 100.00 1 10.00 10.00 0.00 0.00 0.00 0.00 0.00 0.00 0 0 0 010.0000
131 10.00 0.00 9900.00 -9900.00 1.0000 100.00 1 10.00 10.00 0.00 0.00 0.00 0.00 0.00 0.00 0 0 0 010.0000
135 10.00 0.00 9900.00 -9900.00 1.0000 100.00 1 10.00 10.00 0.00 0.00 0.00 0.00 0.00 0.00 0 0 0 010.0000
139 10.00 0.00 9900.00 -9900.00 1.0000 100.00 1 10.00 10.00 0.00 0.00 0.00 0.00 0.00 0.00 0 0 0 010.0000
143 10.00 0.00 9900.00 -9900.00 1.0000 100.00 1 10.00 10.00 0.00 0.00 0.00 0.00 0.00 0.00 0 0 0 010.0000
147 10.00 0.00 9900.00 -9900.00 1.0000 100.00 1 10.00 10.00 0.00 0.00 0.00 0.00 0.00 0.00 0 0 0 010.0000
151 10.00 0.00 9900.00 -9900.00 1.0000 100.00 1 10.00 10.00 0.00 0.00 0.00 0.00 0.00 0.00 0 0 0 010.0000
155 10.00 0.00 9900.00 -9900.00 1.0000 100.00 1 10.00 10.00 0.00 0.00 0.00 0.00 0.00 0.00 0 0 0 010.0000
159 10.00 0.00 9900.00 -9900.00 1.0000 100.00 1 10.00 10.00 0.00 0.00 0.00 0.00 0.00 0.00 0 0 0 010.0000
163 10.00 0.00 9900.00 -9900.00 1.0000 100.00 1 10.00 10.00 0.00 0.00 0.00 0.00 0.00 0.00 0 0 0 010.0000
167 10.00 0.00 9900.00 -9900.00 1.0000 100.00 1 10.00 10.00 0.00 0.00 0.00 0.00 0.00 0.00 0 0 0 010.0000
171 10.00 0.00 9900.00 -9900.00 1.0000 100.00 1 10.00 10.00 0.00 0.00 0.00 0.00 0.00 0.00 0 0 0 010.0000
175 10.00 0.00 9900.00 -9900.00 1.0000 100.00 1 10.00 10.00 0.00 0.00 0.00 0.00 0.00 0.00 0 0 0 010.0000
179 10.00 0.00 9900.00 -9900.00 1.0000 100.00 1 10.00 10.00 0.00 0.00 0.00 0.00 0.00 0.00 0 0 0 010.0000
183 10.00 0.00 9900.00 -9900.00 1.0000 100.00 1 10.00 10.00 0.00 0.00 0.00 0.00 0.00 0.00 0 0 0 010.0000
187 10.00 0.00 9900.00 -9900.00 1.0000 100.00 1 10.00 10.00 0.00 0.00 0.00 0.00 0.00 0.00 0 0 0 010.0000
191 10.00 0.00 9900.00 -9900.00 1.0000 100.00 1 10.00 10.00 0.00 0.00 0.00 0.00 0.00 0.00 0 0 0 010.0000
195 10.00 0.00 9900.00 -9900.00 1.0000 100.00 1 10.00 10.00 0.00 0.00 0.00 0.00 0.00 0.00 0 0 0 010.0000
199 10.00 0.00 9900.00 -9900.00 1.0000 100.00 1 10.00 10.00 0.00 0.00 0.00 0.00 0.00 0.00 0 0 0 010.0000
203 10.00 0.00 9900.00 -9900.00 1.0000 100.00 1 10.00 10.00 0.00 0.00 0.00 0.00 0.00 0.00 0 0 0 010.0000
207 10.00 0.00 9900.00 -9900.00 1.0000 100.00 1 10.00 10.00 0.00 0.00 0.00 0.00 0.00 0.00 0 0 0 010.0000
211 10.00 0.00 9900.00 -9900.00 1.0000 100.00 1 10.00 10.00 0.00 0.00 0.00 0.00 0.00 0.00 0 0 0 010.0000
215 10.00 0.00 9900.00 -9900.00 1.0000 100.00 1 10.00 10.00 0.00 0.00 0.00 0.00 0.00 0.00 0 0 0 010.0000
219 10.00 0.00 9900.00 -9900.00 1.0000 100.00 1 10.00 10.00 0.00 0.00 0.00 0.00 0.00 0.00 0 0 0 010.0000
223 10.00 0.00 9900.00 -9900.00 1.0000 100.00 1 10.00 10.00 0.00 0.00 0.00 0.00 0.00 0.00 0 0 0 010.0000
227 10.00 0.00 9900.00 -9900.00 1.0000 100.00 1 10.00 10.00 0.00 0.00 0.00 0.00 0.00 0.00 0 0 0 010.0000
231 10.00 0.00 9900.00 -9900.00 1.0000 100.00 1 10.00 10.00 0.00 0.00 0.00 0.00 0.00 0.00 0 0 0 010.0000
235 10.00 0.00 9900.00 -9900.00 1.0000 100.00 1 10.00 10.00 0.00 0.00 0.00 0.00 0.00 0.00 0 0 0 010.0000
239 10.00 0.00 9900.00 -9900.00 1.0000 100.00 1 10.00 10.00 0.00 0.00 0.00 0.00 0.00 0.00 0 0 0 010.0000
243 10.00 0.00 9900.00 -9900.00 1.0000 100.00 1 10.00 10.00 0.00 0.00 0.00 0.00 0.00 0.00 0 0 0 010.0000
247 10.00 0.00 9900.00 -9900.00 1.0000 100.00 1 10.00 10.00 0.00 0.00 0.00 0.00 0.00 0.00 0 0 0 010.0000
251 10.00 0.00 9900.00 -9900.00 1.0000 100.00 1 10.00 10.00 0.00 0.00 0.00 0.00 0.00 0.00 0 0 0 010.0000
255 10.00 0.00 9900.00 -9900.00 1.0000 100.00 1 10.00 10.00 0.00 0.00 0.00 0.00 0.00 0.00 0 0 0 010.0000
259 10.00 0.00 9900.00 -9900.00 1.0000 100.00 1 10.00 10.00 0.00 0.00 0.00 0.00 0.00 0.00 0 0 0 010.0000
263 10.00 0.00 9900.00 -9900.00 1.0000 100.00 1 10.00 10.00 0.00 0.00 0.00 0.00 0.00 0.00 0 0 0 010.0000
267 10.00 0.00 9900.00 -9900.00 1.0000 100.00 1 10.00 10.00 0.00 0.00 0.00 0.00 0.00 0.00 0 0 0 010.0000
271 10.00 0.00 9900.00 -9900.00 1.0000 100.00 1 10.00 10.00 0.00 0.00 0.00 0.00 0.00 0.00 0 0 0 010.0000
275 10.00 0.00 9900.00 -9900.00 1.0000 100.00 1 10.00 10.00 0.00 0.00 0.00 0.00 0.00 0.00 0 0 0 010.0000
279 10.00 0.00 9900.00 -9900.00 1.0000 100.00 1 10.00 10.00 0.00 0.00 0.00 0.00 0.00 0.00 0 0 0 010.0000
283 10.00 0.00 9900.00 -9900.00 1.0000 100.00 1 10.00 10.00 0.00 0.00 0.00 0.00 0.00 0.00 0 0 0 010.0000
287 10.00 0.00 9900.00 -9900.00 1.0000 100.00 1 10.00 10.00 0.00 0.00 0.00 0.00 0.00 0.00 0 0 0 010.0000
291 10.00 0.00 9900.00 -9900.00 1.0000 100.00 1 10.00 10.00 0.00 0.00 0.00 0.00 0.00 0.00 0 0 0 010.0000
295 10.00 0.00 9900.00 -9900.00 1.0000 100.00 1 10.00 10.00 0.00 0.00 0.00 0.00 0.00 0.00 0 0 0 010.0000
299 10.00 0.00 9900.00 -9900.00 1.0000 100.00 1 10.00 10.00 0.00 0.00 0.00 0.00 0.00 0.00 0 0 0 010.0000
303 10.00 0.00 9900.00 -9900.00 1.0000 100.00 1 10.00 10.00 0.00 0.00 0.00 0.00 0.00 0.00 0 0 0 010.0000
307 10.00 0.00 9900.00 -9900.00 1.0000 100.00 1 10.00 10.00 0.00 0.00 0.00 0.00 0.00 0.00 0 0 0 010.0000
311 10.00 0.00 9900.00 -9900.00 1.0000 100.00 1 10.00 10.00 0.00 0.00 0.00 0.00 0.00 0.00 0 0 0 010.0000
315 10.00 0.00 9900.00 -9900.00 1.0000 100.00 1 10.00 10.00 0.00 0.00 0.00 0.00 0.00 0.00 0 0 0 010.0000
319 10.00 0.00 9900.00 -9900.00 1.0000 100.00 1 10.00 10.00 0.00 0.00 0.00 0.00 0.00 0.00 0 0 0 010.0000
323 10.00 0.00 9900.00 -9900.00 1.0000 100.00 1 10.00 10.00 0.00 0.00 0.00 0.00 0.00 0.00 0 0 0 010.0000
327 10.00 0.00 9900.00 -9900.00 1.0000 100.00 1 10.00 10.00 0.00 0.00 0.00 0.00 0.00 0.00 0 0 0 010.0000
331 10.00 0.00 9900.00 -9900.00 1.0000 100.00 1 10.00 10.00 0.00 0.00 0.00 0.00 0.00 0.00 0 0 0 010.0000
335 10.00 0.00 9900.00 -9900.00 1.0000 100.00 1 10.00 10.00 0.00 0.00 0.00 0.00 0.00 0.00 0 0 0 010.0000
339 10.00 0.00 9900.00 -9900.00 1.0000 100.00 1 10.00 10.00 0.00 0.00 0.00 0.00 0.00 0.00 0 0 0 010.0000
343 10.00 0.00 9900.00 -9900.00 1.0000 100.00 1 10.00 10.00 0.00 0.00 0.00 0.00 0.00 0.00 0 0 0 010.0000
347 10.00 0.00 9900.00 -9900.00 1.0000 100.00 1 10.00 10.00 0.00 0.00 0.00 0.00 0.00 0.00 0 0 0 010.0000
351 10.00 0.00 9900.00 -9900.00 1.0000 100.00 1 10.00 10.00 0.00 0.00 0.00 0.00 0.00 0.00 0 0 0 010.0000
355 10.00 0.00 9900.00 -9900.00 1.0000 100.00 1 10.00 10.00 0.00 0.00 0.00 0.00 0.00 0.00 0 0 0 010.0000
359 10.00 0.00 9900.00 -9900.00 1.0000 100.00 1 10.00 10.00 0.00 0.00 0.00 0.00 0.00 0.00 0 0 0 010.0000
363 10.00 0.00 9900.00 -9900.00 1.0000 100.00 1 10.00 10.00 0.00 0.00 0.00 0.00 0.00 0.00 0 0 0 010.0000
367 10.00 0.00 9900.00 -9900.00 1.0000 100.00 1 10.00 10.00 0.00 0.00 0.00 0.00 0.00 0.00 0 0 0 010.0000
371 10.00 0.00 9900.00 -9900.00 1.0000 100.00 1 10.00 10.00 0.00 0.00 0.00 0.00 0.00 0.00 0 0 0 010.0000
375 10.00 0.00 9900.00 -9900.00 1.0000 100.00 1 10.00 10.00 0.00 0.00 0.00 0.00 0.00 0.00 0 0 0 010.0000
379 10.00 0.00 9900.00 -9900.00 1.0000 100.00 1 10.00 10.00 0.00 0.00 0.00 0.00 0.00 0.00 0 0 0 010.0000
383 10.00 0.00 9900.00 -9900.00 1.0000 100.00 1 10.00 10.00 0.00 0.00 0.00 0.00 0.00 0.00 0 0 0 010.0000
387 10.00 0.00 9900.00 -9900.00 1.0000 100.00 1 10.00 10.00 0.00 0.00 0.00 0.00 0.00 0.00 0 0 0 010.0000
391 10.00 0.00 9900.00 -9900.00 1.0000 100.00 1 10.00 10.00 0.00 0.00 0.00 0.00 0.00 0.00 0 0 0 010.0000
395 10.00 0.00 9900.00 -9900.00 1.0000 100.00 1 10.00 10.00 0.00 0.00 0.00 0.00 0.00 0.00 0 0 0 010.0000
399 10.00 0.00 9900.00 -9900.00 1.0000 100.00 1 10.00 10.00 0.00 0.00 0.00 0.00 0.00 0.00 0 0 0 010.0000
403 10.00 0.00 9900.00 -9900.00 1.0000 100.00 1 10.00 10.00 0.00 0.00 0.00 0.00 0.00 0.00 0 0 0 010.0000
407 10.00 0.00 9900.00 -9900.00 1.0000 100.00 1 10.00 10.00 0.00 0.00 0.00 0.00 0.00 0.00 0 0 0 010.0000
411 10.00 0.00 9900.00 -9900.00 1.0000 100.00 1 10.00 10.00 0.00 0.00 0.00 0.00 0.00 0.00 0 0 0 010.0000
415 10.00 0.00 9900.00 -9900.00 1.0000 100.00 1 10.00 10.00 0.00 0.00 0.00 0.00 0.00 0.00 0 0 0 010.0000
419 10.00 0.00 9900.00 -9900.00 1.0000 100.00 1 10.00 10.00 0.00 0.00 0.00 0.00 0.00 0.00 0 0 0 010.0000
423 10.00 0.00 9900.00 -9900.00 1.0000 100.00 1 10.00 10.00 0.00 0.00 0.00 0.00 0.00 0.00 0 0 0 010.0000
427 10.00 0.00 9900.00 -9900.00 1.0000 100.00 1 10.00 10.00 0.00 0.00 0.00 0.00 0.00 0.00 0 0 0 010.0000
431 10.00 0.00 9900.00 -9900.00 1.0000 100.00 1 10.00 10.00 0.00 0.00 0.00 0.00 0.00 0.00 0 0 0 010.0000
435 10.00 0.00 9900.00 -9900.00 1.0000 100.00 1 10.00 10.00 0.00 0.00 0.00 0.00 0.00 0.00 0 0 0 010.0000
439 10.00 0.00 9900.00 -9900.00 1.0000 100.00 1 10.00 10.00 0.00 0.00 0.00 0.00 0.00 0.00 0 0 0 010.0000
443 10.00 0.00 9900.00 -9900.00 1.0000 100.00 1 10.00 10.00 0.00 0.00 0.00 0.00 0.00 0.00 0 0 0 010.0000
447 10.00 0.00 9900.00 -9900.00 1.0000 100.00 1 10.00 10.00 0.00 0.00 0.00 0.00 0.00 0.00 0 0 0 010.0000
451 10.00 0.00 9900.00 -9900.00 1.0000 100.00 1 10.00 10.00 0.00 0.00 0.00 0.00 0.00 0.00 0 0 0 010.0000
455 10.00 0.00 9900.00 -9900.00 1.0000 100.00 1 10.00 10.00 0.00 0.00 0.00 0.00 0.00 0.00 0 0 0 010.0000
459 10.00 0.00 9900.00 -9900.00 1.0000 100.00 1 10.00 10.00 0.00 0.00 0.00 0.00 0.00 0.00 0 0 0 010.0000
463 10.00 0.00 9900.00 -9900.00 1.0000 100.00 1 10.00 10.00 0.00 0.00 0.00 0.00 0.00 0.00 0 0 0 010.0000
467 10.00 0.00 9900.00 -9900.00 1.0000 100.00 1 10.00 10.00 0.00 0.00 0.00 0.00 0.00 0.00 0 0 0 010.0000
471 10.00 0.00 9900.00 -9900.00 1.0000 100.00 1 10.00 10.00 0.00 0.00 0.00 0.00 0.00 0.00 0 0 0 010.0000
475 10.00 0.00 9900.00 -9900.00 1.0000 100.00 1 10.00 10.00 0.00 0.00 0.00 0.00 0.00 0.00 0 0 0 010.0000
479 10.00 0.00 9900.00 -9900.00 1.0000 100.00 1 10.00 10.00 0.00 0.00 0.00 0.00 0.00 0.00 0 0 0 010.0000
483 10.00 0.00 9900.00 -9900.00 1.0000 100.00 1 10.00 10.00 0.00 0.00 0.00 0.00 0.00 0.00 0 0 0 010.0000
487 10.00 0.00 9900.00 -9900.00 1.0000 100.00 1 10.00 10.00 0.00 0.00 0.00 0.00 0.00 0.00 0 0 0 010.0000
491 10.00 0.00 9900.00 -9900.00 1.0000 100.00 1 10.00 10.00 0.00 0.00 0.00 0.00 0.00 0.00 0 0 0 010.0000
495 10.00 0.00 9900.00 -9900.00 1.0000 100.00 1 10.00 10.00 0.00 0.00 0.00 0.00 0.00 0.00 0 0 0 010.0000
499 10.00 0.00 9900.00 -9900.00 1.0000 100.00 1 10.00 10.00 0.00 0.00 0.00 0.00 0.00 0.00 0 0 0 010.0000
503 10.00 0.00 9900.00 -9900.00 1.0000 100.00 1 10.00 10.00 0.00 0.00 0.00 0.00 0.00 0.00 0 0 0 010.0000
507 10.00 0.00 9900.00 -9900.00 1.0000 100.00 1 10.00 10.00 0.00 0.00 0.00 0.00 0.00 0.00 0 0 0 010.0000
511 10.00 0.00 9900.00 -9900.00 1.0000 100.00 1 10.00 10.00 0.00 0.00 0.00 0.00 0.00 0.00 0 0 0 010.0000
515 10.00 0.00 9900.00 -9900.00 1.0000 100.00 1 10.00 10.00 0.00 0.00 0.00 0.00 0.00 0.00 0 0 0 010.0000
519 10.00 0.00 9900.00 -9900.00 1.0000 100.00 1 10.00 10.00 0.00 0.00 0.00 0.00 0.00 0.00 0 0 0 010.0000
523 10.00 0.00 9900.00 -9900.00 1.0000 100.00 1 10.00 10.00 0.00 0.00 0.00 0.00 0.00 0.00 0 0 0 010.0000
527 10.00 0.00 9900.00 -9900.00 1.0000 100.00 1 10.00 10.00 0.00 0.00 0.00 0.00 0.00 0.00 0 0 0 010.0000
531 10.00 0.00 9900.00 -9900.00 1.0000 100.00 1 10.00 10.00 0.00 0.00 0.00 0.00 0.00 0.00 0 0 0 010.0000
535 10.00 0.00 9900.00 -9900.00 1.0000 100.00 1 10.00 10.00 0.00 0.00 0.00 0.00 0.00 0.00 0 0 0 010.0000
539 10.00 0.00 9900.00 -9900.00 1.0000 100.00 1 10.00 10.00 0.00 0.00 0.00 0.00 0.00 0.00 0 0 0 010.0000
543 10.00 0.00 9900.00 -9900.00 1.0000 100.00 1 10.00 10.00 0.00 0.00 0.00 0.00 0.00 0.00 0 0 0 010.0000
547 10.00 0.00 9900.00 -9900.00 1.0000 100.00 1 10.00 10.00 0.00 0.00 0.00 0.00 0.00 0.00 0 0 0 010.0000
551 10.00 0.00 9900.00 -9900.00 1.0000 100.00 1 10.00 10.00 0.00 0.00 0.00 0.00 0.00 0.00 0 0 0 010.0000
555 10.00 0.00 9900.00 -9900.00 1.0000 100.00 1 10.00 10.00 0.00 0.00 0.00 0.00 0.00 0.00 0 0 0 010.0000
559 10.00 0.00 9900.00 -9900.00 1.0000 100.00 1 10.00 10.00 0.00 0.00 0.00 0.00 0.00 0.00 0 0 0 010.0000
563 10.00 0.00 9900.00 -9900.00 1.0000 100.00 1 10.00 10.00 0.00 0.00 0.00 0.00 0.00 0.00 0 0 0 010.0000
567 10.00 0.00 9900.00 -9900.00 1.0000 100.00 1 10.00 10.00 0.00 0.00 0.00 0.00 0.00 0.00 0 0 0 010.0000
571 10.00 0.00 9900.00 -9900.00 1.0000 100.00 1 10.00 10.00 0.00 0.00 0.00 0.00 0.00 0.00 0 0 0 010.0000
575 10.00 0.00 9900.00 -9900.00 1.0000 100.00 1 10.00 10.00 0.00 0.00 0.00 0.00 0.00 0.00 0 0 0 010.0000
579 10.00 0.00 9900.00 -9900.00 1.0000 100.00 1 10.00 10.00 0.00 0.00 0.00 0.00 0.00 0.00 0 0 0 010.0000
583 10.00 0.00 9900.00 -9900.00 1.0000 100.00 1 10.00 10.00 0.00 0.00 0.00 0.00 0.00 0.00 0 0 0 010.0000
587 10.00 0.00 9900.00 -9900.00 1.0000 100.00 1 10.00 10.00 0.00 0.00 0.00 0.00 0.00 0.00 0 0 0 010.0000
591 10.00 0.00 9900.00 -9900.00 1.0000 100.00 1 10.00 10.00 0.00 0.00 0.00 0.00 0.00 0.00 0 0 0 010.0000
595 10.00 0.00 9900.00 -9900.00 1.0000 100.00 1 10.00 10.00 0.00 0.00 0.00 0.00 0.00 0.00 0 0 0 010.0000
599 10.00 0.00 9900.00 -9900.00 1.0000 100.00 1 10.00 10.00 0.00 0.00 0.00 0.00 0.00 0.00 0 0 0 010.0000
603 10.00 0.00 9900.00 -9900.00 1.0000 100.00 1 10.00 10.00 0.00 0.00 0.00 0.00 0.00 0.00 0 0 0 010.0000
607 10.00 0.00 9900.00 -9900.00 1.0000 100.00 1 10.00 10.00 0.00 0.00 0.00 0.00 0.00 0.00 0 0 0 010.0000
611 10.00 0.00 9900.00 -9900.00 1.0000 100.00 1 10.00 10.00 0.00 0.00 0.00 0.00 0.00 0.00 0 0 0 010.0000
615 10.00 0.00 9900.00 -9900.00 1.0000 100.00 1 10.00 10.00 0.00 0.00 0.00 0.00 0.00 0.00 0 0 0 010.0000
619 10.00 0.00 9900.00 -9900.00 1.0000 100.00 1 10.00 10.00 0.00 0.00 0.00 0.00 0.00 0.00 0 0 0 010.0000
623 10.00 0.00 9900.00 -9900.00 1.0000 100.00 1 10.00 10.00 0.00 0.00 0.00 0.00 0.00 0.00 0 0 0 010.0000
627 10.00 0.00 9900.00 -9900.00 1.0000 100.00 1 10.00 10.00 0.00 0.00 0.00 0.00 0.00 0.00 0 0 0 010.0000
631 10.00 0.00 9900.00 -9900.00 1.0000 100.00 1 10.00 10.00 0.00 0.00 0.00 0.00 0.00 0.00 0 0 0 010.0000
635 10.00 0.00 9900.00 -9900.00 1.0000 100.00 1 10.00 10.00 0.00 0.00 0.00 0.00 0.00 0.00 0 0 0 010.0000
639 10.00 0.00 9900.00 -9900.00 1.0000 100.00 1 10.00 10.00 0.00 0.00 0.00 0.00 0.00 0.00 0 0 0 010.0000
643 10.00 0.00 9900.00 -9900.00 1.0000 100.00 1 10.00 10.00 0.00 0.00 0.00 0.00 0.00 0.00 0 0 0 010.0000
647 10.00 0.00 9900.00 -9900.00 1.0000 100.00 1 10.00 10.00 0.00 0.00 0.00 0.00 0.00 0.00 0 0 0 010.0000
651 10.00 0.00 9900.00 -9900.00 1.0000 100.00 1 10.00 10.00 0.00 0.00 0.00 0.00 0.00 0.00 0 0 0 010.0000
655 10.00 0.00 9900.00 -9900.00 1.0000 100.00 1 10.00 10.00 0.00 0.00 0.00 0.00 0.00 0.00 0 0 0 010.0000
659 10.00 0.00 9900.00 -9900.00 1.0000 100.00 1 10.00 10.00 0.00 0.00 0.00 0.00 0.00 0.00 0 0 0 010.0000
663 10.00 0.00 9900.00 -9900.00 1.0000 100.00 1 10.00 10.00 0.00 0.00 0.00 0.00 0.00 0.00 0 0 0 010.0000
667 10.00 0.00 9900.00 -9900.00 1.0000 100.00 1 10.00 10.00 0.00 0.00 0.00 0.00 0.00 0.00 0 0 0 010.0000
671 10.00 0.00 9900.00 -9900.00 1.0000 100.00 1 10.00 10.00 0.00 0.00 0.00 0.00 0.00 0.00 0 0 0 010.0000
675 10.00 0.00 9900.00 -9900.00 1.0000 100.00 1 10.00 10.00 0.00 0.00 0.00 0.00 0.00 0.00 0 0 0 010.0000
679 10.00 0.00 9900.00 -9900.00 1.0000 100.00 1 10.00 10.00 0.00 0.00 0.00 0.00 0.00 0.00 0 0 0 010.0000
683 10.00 0.00 9900.00 -9900.00 1.0000 100.00 1 10.00 10.00 0.00 0.00 0.00 0.00 0.00 0.00 0 0 0 010.0000
687 10.00 0.00 9900.00 -9900.00 1.0000 100.00 1 10.00 10.00 0.00 0.00 0.00 0.00 0.00 0.00 0 0 0 010.0000
691 10.00 0.00 9900.00 -9900.00 1.0000 100.00 1 10.00 10.00 0.00 0.00 0.00 0.00 0.00 0.00 0 0 0 010.0000
695 10.00 0.00 9900.00 -9900.00 1.0000 100.00 1 10.00 10.00 0.00 0.00 0.00 0.00 0.00 0.00 0 0 0 010.0000
699 10.00 0.00 9900.00 -9900.00 1.0000 100.00 1 10.00 10.00 0.00 0.00 0.00 0.00 0.00 0.00 0 0 0 010.0000
703 10.00 0.00 9900.00 -9900.00 1.0000 100.00 1 10.00 10.00 0.00 0.00 0.00 0.00 0.00 0.00 0 0 0 010.0000
707 10.00 0.00 9900.00 -9900.00 1.0000 100.00 1 10.00 10.00 0.00 0.00 0.00 0.00 0.00 0.00 0 0 0 010.0000
711 10.00 0.00 9900.00 -9900.00 1.0000 100.00 1 10.00 10.00 0.00 0.00 0.00 0.00 0.00 0.00 0 0 0 010.0000
715 10.00 0.00 9900.00 -9900.00 1.0000 100.00 1 10.00 10.00 0.00 0.00 0.00 0.00 0.00 0.00 0 0 0 010.0000
719 10.00 0.00 9900.00 -9900.00 1.0000 100.00 1 10.00 10.00 0.00 0.00 0.00 0.00 0.00 0.00 0 0 0 010.0000
723 10.00 0.00 9900.00 -9900.00 1.0000 100.00 1 10.00 10.00 0.00 0.00 0.00 0.00 0.00 0.00 0 0 0 010.0000
727 10.00 0.00 9900.00 -9900.00 1.0000 100.00 1 10.00 10.00 0.00 0.00 0.00 0.00 0.00 0.00 0 0 0 010.0000
731 10.00 0.00 9900.00 -9900.00 1.0000 100.00 1 10.00 10.00 0.00 0.00 0.00 0.00 0.00 0.00 0 0 0 010.0000
735 10.00 0.00 9900.00 -9900.00 1.0000 100.00 1 10.00 10.00 0.00 0.00 0.00 0.00 0.00 0.00 0 0 0 010.0000
739 10.00 0.00 9900.00 -9900.00 1.0000 100.00 1 10.00 10.00 0.00 0.00 0.00 0.00 0.00 0.00 0 0 0 010.0000
743 10.00 0.00 9900.00 -9900.00 1.0000 100.00 1 10.00 10.00 0.00 0.00 0.00 0.00 0.00 0.00 0 0 0 010.0000
747 10.00 0.00 9900.00 -9900.00 1.0000 100.00 1 10.00 10.00 0.00 0.00 0.00 0.00 0.00 0.00 0 0 0 010.0000
751 10.00 0.00 9900.00 -9900.00 1.0000 100.00 1 10.00 10.00 0.00 0.00 0.00 0.00 0.00 0.00 0 0 0 010.0000
755 10.00 0.00 9900.00 -9900.00 1.0000 100.00 1 10.00 10.00 0.00 0.00 0.00 0.00 0.00 0.00 0 0 0 010.0000
759 10.00 0.00 9900.00 -9900.00 1.0000 100.00 1 10.00 10.00 0.00 0.00 0.00 0.00 0.00 0.00 0 0 0 010.0000
763 10.00 0.00 9900.00 -9900.00 1.0000 100.00 1 10.00 10.00 0.00 0.00 0.00 0.00 0.00 0.00 0 0 0 010.0000
767 10.00 0.00 9900.00 -9900.00 1.0000 100.00 1 10.00 10.00 0.00 0.00 0.00 0.00 0.00 0.00 0 0 0 010.0000
771 10.00 0.00 9900.00 -9900.00 1.0000 100.00 1 10.00 10.00 0.00 0.00 0.00 0.00 0.00 0.00 0 0 0 010.0000
775 10.00 0.00 9900.00 -9900.00 1.0000 100.00 1 10.00 10.00 0.00 0.00 0.00 0.00 0.00 0.00 0 0 0 010.0000
779 10.00 0.00 9900.00 -9900.00 1.0000 100.00 1 10.00 10.00 0.00 0.00 0.00 0.00 0.00 0.00 0 0 0 010.0000
783 10.00 0.00 9900.00 -9900.00 1.0000 100.00 1 10.00 10.00 0.00 0.00 0.00 0.00 0.00 0.00 0 0 0 010.0000
787 10.00 0.00 9900.00 -9900.00 1.0000 100.00 1 10.00 10.00 0.00 0.00 0.00 0.00 0.00 0.00 0 0 0 010.0000
791 10.00 0.00 9900.00 -9900.00 1.0000 100.00 1 10.00 10.00 0.00 0.00 0.00 0.00 0.00 0.00 0 0 0 010.0000
795 10.00 0.00 9900.00 -9900.00 1.0000 100.00 1 10.00 10.00 0.00 0.00 0.00 0.00 0.00 0.00 0 0 0 010.0000
799 10.00 0.00 9900.00 -9900.00 1.0000 100.00 1 10.00 10.00 0.00 0.00 0.00 0.00 0.00 0.00 0 0 0 010.0000
...
];

%% generator cost data
mpc.gencost = [
2 0 0 3 0.010 0.100 8.00 0.0000 
2 0 0 3 0.010 0.100 8.00 0.0000 
2 0 0 3 0.010 0.100 8.00 0.0000 
2 0 0 3 0.010 0.100 8.00 0.0000 
2 0 0 3 0.010 0.100 8.00 0.0000 
2 0 0 3 0.010 0.100 8.00 0.0000 
2 0 0 3 0.010 0.100 8.00 0.0000 
2 0 0 3 0.010 0.100 8.00 0.0000 
2 0 0 3 0.010 0.100 8.00 0.0000 
2 0 0 3 0.010 0.100 8.00 0.0000 
2 0 0 3 0.010 0.100 8.00 0.0000 
2 0 0 3 0.010 0.100 8.00 0.0000 
2 0 0 3 0.010 0.100 8.00 0.0000 
2 0 0 3 0.010 0.100 8.00 0.0000 
2 0 0 3 0.010 0.100 8.00 0.0000 
2 0 0 3 0.010 0.100 8.00 0.0000 
2 0 0 3 0.010 0.100 8.00 0.0000 
2 0 0 3 0.010 0.100 8.00 0.0000 
2 0 0 3 0.010 0.100 8.00 0.0000 
2 0 0 3 0.010 0.100 8.00 0.0000 
2 0 0 3 0.010 0.100 8.00 0.0000 
2 0 0 3 0.010 0.100 8.00 0.0000 
2 0 0 3 0.010 0.100 8.00 0.0000 
2 0 0 3 0.010 0.100 8.00 0.0000 
2 0 0 3 0.010 0.100 8.00 0.0000 
2 0 0 3 0.010 0.100 8.00 0.0000 
2 0 0 3 0.010 0.100 8.00 0.0000 
2 0 0 3 0.010 0.100 8.00 0.0000 
2 0 0 3 0.010 0.100 8.00 0.0000 
2 0 0 3 0.010 0.100 8.00 0.0000 
2 0 0 3 0.010 0.100 8.00 0.0000 
2 0 0 3 0.010 0.100 8.00 0.0000 
2 0 0 3 0.010 0.100 8.00 0.0000 
2 0 0 3 0.010 0.100 8.00 0.0000 
2 0 0 3 0.010 0.100 8.00 0.0000 
2 0 0 3 0.010 0.100 8.00 0.0000 
2 0 0 3 0.010 0.100 8.00 0.0000 
2 0 0 3 0.010 0.100 8.00 0.0000 
2 0 0 3 0.010 0.100 8.00 0.0000 
2 0 0 3 0.010 0.100 8.00 0.0000 
2 0 0 3 0.010 0.100 8.00 0.0000 
2 0 0 3 0.010 0.100 8.00 0.0000 
2 0 0 3 0.010 0.100 8.00 0.0000 
2 0 0 3 0.010 0.100 8.00 0.0000 
2 0 0 3 0.010 0.100 8.00 0.0000 
2 0 0 3 0.010 0.100 8.00 0.0000 
2 0 0 3 0.010 0.100 8.00 0.0000 
2 0 0 3 0.010 0.100 8.00 0.0000 
2 0 0 3 0.010 0.100 8.00 0.0000 
2 0 0 3 0.010 0.100 8.00 0.0000 
2 0 0 3 0.010 0.100 8.00 0.0000 
2 0 0 3 0.010 0.100 8.00 0.0000 
2 0 0 3 0.010 0.100 8.00 0.0000 
2 0 0 3 0.010 0.100 8.00 0.0000 
2 0 0 3 0.010 0.100 8.00 0.0000 
2 0 0 3 0.010 0.100 8.00 0.0000 
2 0 0 3 0.010 0.100 8.00 0.0000 
2 0 0 3 0.010 0.100 8.00 0.0000 
2 0 0 3 0.010 0.100 8.00 0.0000 
2 0 0 3 0.010 0.100 8.00 0.0000 
2 0 0 3 0.010 0.100 8.00 0.0000 
2 0 0 3 0.010 0.100 8.00 0.0000 
2 0 0 3 0.010 0.100 8.00 0.0000 
2 0 0 3 0.010 0.100 8.00 0.0000 
2 0 0 3 0.010 0.100 8.00 0.0000 
2 0 0 3 0.010 0.100 8.00 0.0000 
2 0 0 3 0.010 0.100 8.00 0.0000 
2 0 0 3 0.010 0.100 8.00 0.0000 
2 0 0 3 0.010 0.100 8.00 0.0000 
2 0 0 3 0.010 0.100 8.00 0.0000 
2 0 0 3 0.010 0.100 8.00 0.0000 
2 0 0 3 0.010 0.100 8.00 0.0000 
2 0 0 3 0.010 0.100 8.00 0.0000 
2 0 0 3 0.010 0.100 8.00 0.0000 
2 0 0 3 0.010 0.100 8.00 0.0000 
2 0 0 3 0.010 0.100 8.00 0.0000 
2 0 0 3 0.010 0.100 8.00 0.0000 
2 0 0 3 0.010 0.100 8.00 0.0000 
2 0 0 3 0.010 0.100 8.00 0.0000 
2 0 0 3 0.010 0.100 8.00 0.0000 
2 0 0 3 0.010 0.100 8.00 0.0000 
2 0 0 3 0.010 0.100 8.00 0.0000 
2 0 0 3 0.010 0.100 8.00 0.0000 
2 0 0 3 0.010 0.100 8.00 0.0000 
2 0 0 3 0.010 0.100 8.00 0.0000 
2 0 0 3 0.010 0.100 8.00 0.0000 
2 0 0 3 0.010 0.100 8.00 0.0000 
2 0 0 3 0.010 0.100 8.00 0.0000 
2 0 0 3 0.010 0.100 8.00 0.0000 
2 0 0 3 0.010 0.100 8.00 0.0000 
2 0 0 3 0.010 0.100 8.00 0.0000 
2 0 0 3 0.010 0.100 8.00 0.0000 
2 0 0 3 0.010 0.100 8.00 0.0000 
2 0 0 3 0.010 0.100 8.00 0.0000 
2 0 0 3 0.010 0.100 8.00 0.0000 
2 0 0 3 0.010 0.100 8.00 0.0000 
2 0 0 3 0.010 0.100 8.00 0.0000 
2 0 0 3 0.010 0.100 8.00 0.0000 
2 0 0 3 0.010 0.100 8.00 0.0000 
2 0 0 3 0.010 0.100 8.00 0.0000 
2 0 0 3 0.010 0.100 8.00 0.0000 
2 0 0 3 0.010 0.100 8.00 0.0000 
2 0 0 3 0.010 0.100 8.00 0.0000 
2 0 0 3 0.010 0.100 8.00 0.0000 
2 0 0 3 0.010 0.100 8.00 0.0000 
2 0 0 3 0.010 0.100 8.00 0.0000 
2 0 0 3 0.010 0.100 8.00 0.0000 
2 0 0 3 0.010 0.100 8.00 0.0000 
2 0 0 3 0.010 0.100 8.00 0.0000 
2 0 0 3 0.010 0.100 8.00 0.0000 
2 0 0 3 0.010 0.100 8.00 0.0000 
2 0 0 3 0.010 0.100 8.00 0.0000 
2 0 0 3 0.010 0.100 8.00 0.0000 
2 0 0 3 0.010 0.100 8.00 0.0000 
2 0 0 3 0.010 0.100 8.00 0.0000 
2 0 0 3 0.010 0.100 8.00 0.0000 
2 0 0 3 0.010 0.100 8.00 0.0000 
2 0 0 3 0.010 0.100 8.00 0.0000 
2 0 0 3 0.010 0.100 8.00 0.0000 
2 0 0 3 0.010 0.100 8.00 0.0000 
2 0 0 3 0.010 0.100 8.00 0.0000 
2 0 0 3 0.010 0.100 8.00 0.0000 
2 0 0 3 0.010 0.100 8.00 0.0000 
2 0 0 3 0.010 0.100 8.00 0.0000 
2 0 0 3 0.010 0.100 8.00 0.0000 
2 0 0 3 0.010 0.100 8.00 0.0000 
2 0 0 3 0.010 0.100 8.00 0.0000 
2 0 0 3 0.010 0.100 8.00 0.0000 
2 0 0 3 0.010 0.100 8.00 0.0000 
2 0 0 3 0.010 0.100 8.00 0.0000 
2 0 0 3 0.010 0.100 8.00 0.0000 
2 0 0 3 0.010 0.100 8.00 0.0000 
2 0 0 3 0.010 0.100 8.00 0.0000 
2 0 0 3 0.010 0.100 8.00 0.0000 
2 0 0 3 0.010 0.100 8.00 0.0000 
2 0 0 3 0.010 0.100 8.00 0.0000 
2 0 0 3 0.010 0.100 8.00 0.0000 
2 0 0 3 0.010 0.100 8.00 0.0000 
2 0 0 3 0.010 0.100 8.00 0.0000 
2 0 0 3 0.010 0.100 8.00 0.0000 
2 0 0 3 0.010 0.100 8.00 0.0000 
2 0 0 3 0.010 0.100 8.00 0.0000 
2 0 0 3 0.010 0.100 8.00 0.0000 
2 0 0 3 0.010 0.100 8.00 0.0000 
2 0 0 3 0.010 0.100 8.00 0.0000 
2 0 0 3 0.010 0.100 8.00 0.0000 
2 0 0 3 0.010 0.100 8.00 0.0000 
2 0 0 3 0.010 0.100 8.00 0.0000 
2 0 0 3 0.010 0.100 8.00 0.0000 
2 0 0 3 0.010 0.100 8.00 0.0000 
2 0 0 3 0.010 0.100 8.00 0.0000 
2 0 0 3 0.010 0.100 8.00 0.0000 
2 0 0 3 0.010 0.100 8.00 0.0000 
2 0 0 3 0.010 0.100 8.00 0.0000 
2 0 0 3 0.010 0.100 8.00 0.0000 
2 0 0 3 0.010 0.100 8.00 0.0000 
2 0 0 3 0.010 0.100 8.00 0.0000 
2 0 0 3 0.010 0.100 8.00 0.0000 
2 0 0 3 0.010 0.100 8.00 0.0000 
2 0 0 3 0.010 0.100 8.00 0.0000 
2 0 0 3 0.010 0.100 8.00 0.0000 
2 0 0 3 0.010 0.100 8.00 0.0000 
2 0 0 3 0.010 0.100 8.00 0.0000 
2 0 0 3 0.010 0.100 8.00 0.0000 
2 0 0 3 0.010 0.100 8.00 0.0000 
2 0 0 3 0.010 0.100 8.00 0.0000 
2 0 0 3 0.010 0.100 8.00 0.0000 
2 0 0 3 0.010 0.100 8.00 0.0000 
2 0 0 3 0.010 0.100 8.00 0.0000 
2 0 0 3 0.010 0.100 8.00 0.0000 
2 0 0 3 0.010 0.100 8.00 0.0000 
2 0 0 3 0.010 0.100 8.00 0.0000 
2 0 0 3 0.010 0.100 8.00 0.0000 
2 0 0 3 0.010 0.100 8.00 0.0000 
2 0 0 3 0.010 0.100 8.00 0.0000 
2 0 0 3 0.010 0.100 8.00 0.0000 
2 0 0 3 0.010 0.100 8.00 0.0000 
2 0 0 3 0.010 0.100 8.00 0.0000 
2 0 0 3 0.010 0.100 8.00 0.0000 
2 0 0 3 0.010 0.100 8.00 0.0000 
2 0 0 3 0.010 0.100 8.00 0.0000 
2 0 0 3 0.010 0.100 8.00 0.0000 
2 0 0 3 0.010 0.100 8.00 0.0000 
2 0 0 3 0.010 0.100 8.00 0.0000 
2 0 0 3 0.010 0.100 8.00 0.0000 
2 0 0 3 0.010 0.100 8.00 0.0000 
2 0 0 3 0.010 0.100 8.00 0.0000 
2 0 0 3 0.010 0.100 8.00 0.0000 
2 0 0 3 0.010 0.100 8.00 0.0000 
2 0 0 3 0.010 0.100 8.00 0.0000 
2 0 0 3 0.010 0.100 8.00 0.0000 
2 0 0 3 0.010 0.100 8.00 0.0000 
2 0 0 3 0.010 0.100 8.00 0.0000 
2 0 0 3 0.010 0.100 8.00 0.0000 
2 0 0 3 0.010 0.100 8.00 0.0000 
2 0 0 3 0.010 0.100 8.00 0.0000 
2 0 0 3 0.010 0.100 8.00 0.0000 
2 0 0 3 0.010 0.100 8.00 0.0000 
2 0 0 3 0.010 0.100 8.00 0.0000 
2 0 0 3 0.010 0.100 8.00 0.0000 
...
];

%% branch data
mpc.branch = [
1 2 0.000000 0.000010 0.00000 0.00 0.00 0.00 0.00000 0.000 1 0.00 0.00 0.00 0.00 0.00 0.00
2 3 0.000000 0.000010 0.00000 0.00 0.00 0.00 1.00000 0.000 1 0.00 0.00 -10.00 -0.00 10.00 0.00
2 4 0.000000 0.000010 0.00000 0.00 0.00 0.00 0.00000 0.000 1 0.00 0.00 10.00 10.00 -10.00 -10.00
4 5 0.000000 0.000010 0.00000 0.00 0.00 0.00 0.00000 0.000 1 0.00 0.00 0.00 0.00 0.00 0.00
5 6 0.000000 0.000010 0.00000 0.00 0.00 0.00 0.00000 0.000 1 0.00 0.00 0.00 0.00 0.00 0.00
6 7 0.000000 0.000010 0.00000 0.00 0.00 0.00 1.00000 0.000 1 0.00 0.00 -10.00 -0.00 10.00 0.00
6 8 0.000000 0.000010 0.00000 0.00 0.00 0.00 0.00000 0.000 1 0.00 0.00 10.00 10.00 -10.00 -10.00
8 9 0.000000 0.000010 0.00000 0.00 0.00 0.00 0.00000 0.000 1 0.00 0.00 0.00 0.00 0.00 0.00
9 10 0.000000 0.000010 0.00000 0.00 0.00 0.00 0.00000 0.000 1 0.00 0.00 0.00 0.00 0.00 0.00
10 11 0.000000 0.000010 0.00000 0.00 0.00 0.00 1.00000 0.000 1 0.00 0.00 -10.00 -0.00 10.00 0.00
10 12 0.000000 0.000010 0.00000 0.00 0.00 0.00 0.00000 0.000 1 0.00 0.00 10.00 10.00 -10.00 -10.00
12 13 0.000000 0.000010 0.00000 0.00 0.00 0.00 0.00000 0.000 1 0.00 0.00 0.00 0.00 0.00 0.00
13 14 0.000000 0.000010 0.00000 0.00 0.00 0.00 0.00000 0.000 1 0.00 0.00 0.00 0.00 0.00 0.00
14 15 0.000000 0.000010 0.00000 0.00 0.00 0.00 1.00000 0.000 1 0.00 0.00 -10.00 -0.00 10.00 0.00
14 16 0.000000 0.000010 0.00000 0.00 0.00 0.00 0.00000 0.000 1 0.00 0.00 10.00 10.00 -10.00 -10.00
16 17 0.000000 0.000010 0.00000 0.00 0.00 0.00 0.00000 0.000 1 0.00 0.00 0.00 0.00 0.00 0.00
17 18 0.000000 0.000010 0.00000 0.00 0.00 0.00 0.00000 0.000 1 0.00 0.00 0.00 0.00 0.00 0.00
18 19 0.000000 0.000010 0.00000 0.00 0.00 0.00 1.00000 0.000 1 0.00 0.00 -10.00 -0.00 10.00 0.00
18 20 0.000000 0.000010 0.00000 0.00 0.00 0.00 0.00000 0.000 1 0.00 0.00 10.00 10.00 -10.00 -10.00
20 21 0.000000 0.000010 0.00000 0.00 0.00 0.00 0.00000 0.000 1 0.00 0.00 0.00 0.00 0.00 0.00
21 22 0.000000 0.000010 0.00000 0.00 0.00 0.00 0.00000 0.000 1 0.00 0.00 0.00 0.00 0.00 0.00
22 23 0.000000 0.000010 0.00000 0.00 0.00 0.00 1.00000 0.000 1 0.00 0.00 -10.00 -0.00 10.00 0.00
22 24 0.000000 0.000010 0.00000 0.00 0.00 0.00 0.00000 0.000 1 0.00 0.00 10.00 10.00 -10.00 -10.00
24 25 0.000000 0.000010 0.00000 0.00 0.00 0.00 0.00000 0.000 1 0.00 0.00 0.00 0.00 0.00 0.00
25 26 0.000000 0.000010 0.00000 0.00 0.00 0.00 0.00000 0.000 1 0.00 0.00 0.00 0.00 0.00 0.00
26 27 0.000000 0.000010 0.00000 0.00 0.00 0.00 1.00000 0.000 1 0.00 0.00 -10.00 -0.00 10.00 0.00
26 28 0.000000 0.000010 0.00000 0.00 0.00 0.00 0.00000 0.000 1 0.00 0.00 10.00 10.00 -10.00 -10.00
28 29 0.000000 0.000010 0.00000 0.00 0.00 0.00 0.00000 0.000 1 0.00 0.00 0.00 0.00 0.00 0.00
29 30 0.000000 0.000010 0.00000 0.00 0.00 0.00 0.00000 0.000 1 0.00 0.00 0.00 0.00 0.00 0.00
30 31 0.000000 0.000010 0.00000 0.00 0.00 0.00 1.00000 0.000 1 0.00 0.00 -10.00 -0.00 10.00 0.00
30 32 0.000000 0.000010 0.00000 0.00 0.00 0.00 0.00000 0.000 1 0.00 0.00 10.00 10.00 -10.00 -10.00
32 33 0.000000 0.000010 0.00000 0.00 0.00 0.00 0.00000 0.000 1 0.00 0.00 0.00 0.00 0.00 0.00
33 34 0.000000 0.000010 0.00000 0.00 0.00 0.00 0.00000 0.000 1 0.00 0.00 0.00 0.00 0.00 0.00
34 35 0.000000 0.000010 0.00000 0.00 0.00 0.00 1.00000 0.000 1 0.00 0.00 -10.00 -0.00 10.00 0.00
34 36 0.000000 0.000010 0.00000 0.00 0.00 0.00 0.00000 0.000 1 0.00 0.00 10.00 10.00 -10.00 -10.00
36 37 0.000000 0.000010 0.00000 0.00 0.00 0.00 0.00000 0.000 1 0.00 0.00 0.00 0.00 0.00 0.00
37 38 0.000000 0.000010 0.00000 0.00 0.00 0.00 0.00000 0.000 1 0.00 0.00 0.00 0.00 0.00 0.00
38 39 0.000000 0.000010 0.00000 0.00 0.00 0.00 1.00000 0.000 1 0.00 0.00 -10.00 -0.00 10.00 0.00
38 40 0.000000 0.000010 0.00000 0.00 0.00 0.00 0.00000 0.000 1 0.00 0.00 10.00 10.00 -10.00 -10.00
40 41 0.000000 0.000010 0.00000 0.00 0.00 0.00 0.00000 0.000 1 0.00 0.00 0.00 0.00 0.00 0.00
41 42 0.000000 0.000010 0.00000 0.00 0.00 0.00 0.00000 0.000 1 0.00 0.00 0.00 0.00 0.00 0.00
42 43 0.000000 0.000010 0.00000 0.00 0.00 0.00 1.00000 0.000 1 0.00 0.00 -10.00 -0.00 10.00 0.00
42 44 0.000000 0.000010 0.00000 0.00 0.00 0.00 0.00000 0.000 1 0.00 0.00 10.00 10.00 -10.00 -10.00
44 45 0.000000 0.000010 0.00000 0.00 0.00 0.00 0.00000 0.000 1 0.00 0.00 0.00 0.00 0.00 0.00
45 46 0.000000 0.000010 0.00000 0.00 0.00 0.00 0.00000 0.000 1 0.00 0.00 0.00 0.00 0.00 0.00
46 47 0.000000 0.000010 0.00000 0.00 0.00 0.00 1.00000 0.000 1 0.00 0.00 -10.00 -0.00 10.00 0.00
46 48 0.000000 0.000010 0.00000 0.00 0.00 0.00 0.00000 0.000 1 0.00 0.00 10.00 10.00 -10.00 -10.00
48 49 0.000000 0.000010 0.00000 0.00 0.00 0.00 0.00000 0.000 1 0.00 0.00 0.00 0.00 0.00 0.00
49 50 0.000000 0.000010 0.00000 0.00 0.00 0.00 0.00000 0.000 1 0.00 0.00 0.00 0.00 0.00 0.00
50 51 0.000000 0.000010 0.00000 0.00 0.00 0.00 1.00000 0.000 1 0.00 0.00 -10.00 -0.00 10.00 0.00
50 52 0.000000 0.000010 0.00000 0.00 0.00 0.00 0.00000 0.000 1 0.00 0.00 10.00 10.00 -10.00 -10.00
52 53 0.000000 0.000010 0.00000 0.00 0.00 0.00 0.00000 0.000 1 0.00 0.00 0.00 0.00 0.00 0.00
53 54 0.000000 0.000010 0.00000 0.00 0.00 0.00 0.00000 0.000 1 0.00 0.00 0.00 0.00 0.00 0.00
54 55 0.000000 0.000010 0.00000 0.00 0.00 0.00 1.00000 0.000 1 0.00 0.00 -10.00 -0.00 10.00 0.00
54 56 0.000000 0.000010 0.00000 0.00 0.00 0.00 0.00000 0.000 1 0.00 0.00 10.00 10.00 -10.00 -10.00
56 57 0.000000 0.000010 0.00000 0.00 0.00 0.00 0.00000 0.000 1 0.00 0.00 0.00 0.00 0.00 0.00
57 58 0.000000 0.000010 0.00000 0.00 0.00 0.00 0.00000 0.000 1 0.00 0.00 0.00 0.00 0.00 0.00
58 59 0.000000 0.000010 0.00000 0.00 0.00 0.00 1.00000 0.000 1 0.00 0.00 -10.00 -0.00 10.00 0.00
58 60 0.000000 0.000010 0.00000 0.00 0.00 0.00 0.00000 0.000 1 0.00 0.00 10.00 10.00 -10.00 -10.00
60 61 0.000000 0.000010 0.00000 0.00 0.00 0.00 0.00000 0.000 1 0.00 0.00 0.00 0.00 0.00 0.00
61 62 0.000000 0.000010 0.00000 0.00 0.00 0.00 0.00000 0.000 1 0.00 0.00 0.00 0.00 0.00 0.00
62 63 0.000000 0.000010 0.00000 0.00 0.00 0.00 1.00000 0.000 1 0.00 0.00 -10.00 -0.00 10.00 0.00
62 64 0.000000 0.000010 0.00000 0.00 0.00 0.00 0.00000 0.000 1 0.00 0.00 10.00 10.00 -10.00 -10.00
64 65 0.000000 0.000010 0.00000 0.00 0.00 0.00 0.00000 0.000 1 0.00 0.00 0.00 0.00 0.00 0.00
65 66 0.000000 0.000010 0.00000 0.00 0.00 0.00 0.00000 0.000 1 0.00 0.00 0.00 0.00 0.00 0.00
66 67 0.000000 0.000010 0.00000 0.00 0.00 0.00 1.00000 0.000 1 0.00 0.00 -10.00 -0.00 10.00 0.00
66 68 0.000000 0.000010 0.00000 0.00 0.00 0.00 0.00000 0.000 1 0.00 0.00 10.00 10.00 -10.00 -10.00
68 69 0.000000 0.000010 0.00000 0.00 0.00 0.00 0.00000 0.000 1 0.00 0.00 0.00 0.00 0.00 0.00
69 70 0.000000 0.000010 0.00000 0.00 0.00 0.00 0.00000 0.000 1 0.00 0.00 0.00 0.00 0.00 0.00
70 71 0.000000 0.000010 0.00000 0.00 0.00 0.00 1.00000 0.000 1 0.00 0.00 -10.00 -0.00 10.00 0.00
70 72 0.000000 0.000010 0.00000 0.00 0.00 0.00 0.00000 0.000 1 0.00 0.00 10.00 10.00 -10.00 -10.00
72 73 0.000000 0.000010 0.00000 0.00 0.00 0.00 0.00000 0.000 1 0.00 0.00 0.00 0.00 0.00 0.00
73 74 0.000000 0.000010 0.00000 0.00 0.00 0.00 0.00000 0.000 1 0.00 0.00 0.00 0.00 0.00 0.00
74 75 0.000000 0.000010 0.00000 0.00 0.00 0.00 1.00000 0.000 1 0.00 0.00 -10.00 -0.00 10.00 0.00
74 76 0.000000 0.000010 0.00000 0.00 0.00 0.00 0.00000 0.000 1 0.00 0.00 10.00 10.00 -10.00 -10.00
76 77 0.000000 0.000010 0.00000 0.00 0.00 0.00 0.00000 0.000 1 0.00 0.00 0.00 0.00 0.00 0.00
77 78 0.000000 0.000010 0.00000 0.00 0.00 0.00 0.00000 0.000 1 0.00 0.00 0.00 0.00 0.00 0.00
78 79 0.000000 0.000010 0.00000 0.00 0.00 0.00 1.00000 0.000 1 0.00 0.00 -10.00 -0.00 10.00 0.00
78 80 0.000000 0.000010 0.00000 0.00 0.00 0.00 0.00000 0.000 1 0.00 0.00 10.00 10.00 -10.00 -10.00
80 81 0.000000 0.000010 0.00000 0.00 0.00 0.00 0.00000 0.000 1 0.00 0.00 0.00 0.00 0.00 0.00
81 82 0.000000 0.000010 0.00000 0.00 0.00 0.00 0.00000 0.000 1 0.00 0.00 0.00 0.00 0.00 0.00
82 83 0.000000 0.000010 0.00000 0.00 0.00 0.00 1.00000 0.000 1 0.00 0.00 -10.00 -0.00 10.00 0.00
82 84 0.000000 0.000010 0.00000 0.00 0.00 0.00 0.00000 0.000 1 0.00 0.00 10.00 10.00 -10.00 -10.00
84 85 0.000000 0.000010 0.00000 0.00 0.00 0.00 0.00000 0.000 1 0.00 0.00 0.00 0.00 0.00 0.00
85 86 0.000000 0.000010 0.00000 0.00 0.00 0.00 0.00000 0.000 1 0.00 0.00 0.00 0.00 0.00 0.00
86 87 0.000000 0.000010 0.00000 0.00 0.00 0.00 1.00000 0.000 1 0.00 0.00 -10.00 -0.00 10.00 0.00
86 88 0.000000 0.000010 0.00000 0.00 0.00 0.00 0.00000 0.000 1 0.00 0.00 10.00 10.00 -10.00 -10.00
88 89 0.000000 0.000010 0.00000 0.00 0.00 0.00 0.00000 0.000 1 0.00 0.00 0.00 0.00 0.00 0.00
89 90 0.000000 0.000010 0.00000 0.00 0.00 0.00 0.00000 0.000 1 0.00 0.00 0.00 0.00 0.00 0.00
90 91 0.000000 0.000010 0.00000 0.00 0.00 0.00 1.00000 0.000 1 0.00 0.00 -10.00 -0.00 10.00 0.00
90 92 0.000000 0.000010 0.00000 0.00 0.00 0.00 0.00000 0.000 1 0.00 0.00 10.00 10.00 -10.00 -10.00
92 93 0.000000 0.000010 0.00000 0.00 0.00 0.00 0.00000 0.000 1 0.00 0.00 0.00 0.00 0.00 0.00
93 94 0.000000 0.000010 0.00000 0.00 0.00 0.00 0.00000 0.000 1 0.00 0.00 0.00 0.00 0.00 0.00
94 95 0.000000 0.000010 0.00000 0.00 0.00 0.00 1.00000 0.000 1 0.00 0.00 -10.00 -0.00 10.00 0.00
94 96 0.000000 0.000010 0.00000 0.00 0.00 0.00 0.00000 0.000 1 0.00 0.00 10.00 10.00 -10.00 -10.00
96 97 0.000000 0.000010 0.00000 0.00 0.00 0.00 0.00000 0.000 1 0.00 0.00 0.00 0.00 0.00 0.00
97 98 0.000000 0.000010 0.00000 0.00 0.00 0.00 0.00000 0.000 1 0.00 0.00 0.00 0.00 0.00 0.00
98 99 0.000000 0.000010 0.00000 0.00 0.00 0.00 1.00000 0.000 1 0.00 0.00 -10.00 -0.00 10.00 0.00
98 100 0.000000 0.000010 0.00000 0.00 0.00 0.00 0.00000 0.000 1 0.00 0.00 10.00 10.00 -10.00 -10.00
100 101 0.000000 0.000010 0.00000 0.00 0.00 0.00 0.00000 0.000 1 0.00 0.00 0.00 0.00 0.00 0.00
101 102 0.000000 0.000010 0.00000 0.00 0.00 0.00 0.00000 0.000 1 0.00 0.00 0.00 0.00 0.00 0.00
102 103 0.000000 0.000010 0.00000 0.00 0.00 0.00 1.00000 0.000 1 0.00 0.00 -10.00 -0.00 10.00 0.00
102 104 0.000000 0.000010 0.00000 0.00 0.00 0.00 0.00000 0.000 1 0.00 0.00 10.00 10.00 -10.00 -10.00
104 105 0.000000 0.000010 0.00000 0.00 0.00 0.00 0.00000 0.000 1 0.00 0.00 0.00 0.00 0.00 0.00
105 106 0.000000 0.000010 0.00000 0.00 0.00 0.00 0.00000 0.000 1 0.00 0.00 0.00 0.00 0.00 0.00
106 107 0.000000 0.000010 0.00000 0.00 0.00 0.00 1.00000 0.000 1 0.00 0.00 -10.00 -0.00 10.00 0.00
106 108 0.000000 0.000010 0.00000 0.00 0.00 0.00 0.00000 0.000 1 0.00 0.00 10.00 10.00 -10.00 -10.00
108 109 0.000000 0.000010 0.00000 0.00 0.00 0.00 0.00000 0.000 1 0.00 0.00 0.00 0.00 0.00 0.00
109 110 0.000000 0.000010 0.00000 0.00 0.00 0.00 0.00000 0.000 1 0.00 0.00 0.00 0.00 0.00 0.00
110 111 0.000000 0.000010 0.00000 0.00 0.00 0.00 1.00000 0.000 1 0.00 0.00 -10.00 -0.00 10.00 0.00
110 112 0.000000 0.000010 0.00000 0.00 0.00 0.00 0.00000 0.000 1 0.00 0.00 10.00 10.00 -10.00 -10.00
112 113 0.000000 0.000010 0.00000 0.00 0.00 0.00 0.00000 0.000 1 0.00 0.00 0.00 0.00 0.00 0.00
113 114 0.000000 0.000010 0.00000 0.00 0.00 0.00 0.00000 0.000 1 0.00 0.00 0.00 0.00 0.00 0.00
114 115 0.000000 0.000010 0.00000 0.00 0.00 0.00 1.00000 0.000 1 0.00 0.00 -10.00 -0.00 10.00 0.00
114 116 0.000000 0.000010 0.00000 0.00 0.00 0.00 0.00000 0.000 1 0.00 0.00 10.00 10.00 -10.00 -10.00
116 117 0.000000 0.000010 0.00000 0.00 0.00 0.00 0.00000 0.000 1 0.00 0.00 0.00 0.00 0.00 0.00
117 118 0.000000 0.000010 0.00000 0.00 0.00 0.00 0.00000 0.000 1 0.00 0.00 0.00 0.00 0.00 0.00
118 119 0.000000 0.000010 0.00000 0.00 0.00 0.00 1.00000 0.000 1 0.00 0.00 -10.00 -0.00 10.00 0.00
118 120 0.000000 0.000010 0.00000 0.00 0.00 0.00 0.00000 0.000 1 0.00 0.00 10.00 10.00 -10.00 -10.00
120 121 0.000000 0.000010 0.00000 0.00 0.00 0.00 0.00000 0.000 1 0.00 0.00 0.00 0.00 0.00 0.00
121 122 0.000000 0.000010 0.00000 0.00 0.00 0.00 0.00000 0.000 1 0.00 0.00 0.00 0.00 0.00 0.00
122 123 0.000000 0.000010 0.00000 0.00 0.00 0.00 1.00000 0.000 1 0.00 0.00 -10.00 -0.00 10.00 0.00
122 124 0.000000 0.000010 0.00000 0.00 0.00 0.00 0.00000 0.000 1 0.00 0.00 10.00 10.00 -10.00 -10.00
124 125 0.000000 0.000010 0.00000 0.00 0.00 0.00 0.00000 0.000 1 0.00 0.00 0.00 0.00 0.00 0.00
125 126 0.000000 0.000010 0.00000 0.00 0.00 0.00 0.00000 0.000 1 0.00 0.00 0.00 0.00 0.00 0.00
126 127 0.000000 0.000010 0.00000 0.00 0.00 0.00 1.00000 0.000 1 0.00 0.00 -10.00 -0.00 10.00 0.00
126 128 0.000000 0.000010 0.00000 0.00 0.00 0.00 0.00000 0.000 1 0.00 0.00 10.00 10.00 -10.00 -10.00
128 129 0.000000 0.000010 0.00000 0.00 0.00 0.00 0.00000 0.000 1 0.00 0.00 0.00 0.00 0.00 0.00
129 130 0.000000 0.000010 0.00000 0.00 0.00 0.00 0.00000 0.000 1 0.00 0.00 0.00 0.00 0.00 0.00
130 131 0.000000 0.000010 0.00000 0.00 0.00 0.00 1.00000 0.000 1 0.00 0.00 -10.00 -0.00 10.00 0.00
130 132 0.000000 0.000010 0.00000 0.00 0.00 0.00 0.00000 0.000 1 0.00 0.00 10.00 10.00 -10.00 -10.00
132 133 0.000000 0.000010 0.00000 0.00 0.00 0.00 0.00000 0.000 1 0.00 0.00 0.00 0.00 0.00 0.00
133 134 0.000000 0.000010 0.00000 0.00 0.00 0.00 0.00000 0.000 1 0.00 0.00 0.00 0.00 0.00 0.00
134 135 0.000000 0.000010 0.00000 0.00 0.00 0.00 1.00000 0.000 1 0.00 0.00 -10.00 -0.00 10.00 0.00
134 136 0.000000 0.000010 0.00000 0.00 0.00 0.00 0.00000 0.000 1 0.00 0.00 10.00 10.00 -10.00 -10.00
136 137 0.000000 0.000010 0.00000 0.00 0.00 0.00 0.00000 0.000 1 0.00 0.00 0.00 0.00 0.00 0.00
137 138 0.000000 0.000010 0.00000 0.00 0.00 0.00 0.00000 0.000 1 0.00 0.00 0.00 0.00 0.00 0.00
138 139 0.000000 0.000010 0.00000 0.00 0.00 0.00 1.00000 0.000 1 0.00 0.00 -10.00 -0.00 10.00 0.00
138 140 0.000000 0.000010 0.00000 0.00 0.00 0.00 0.00000 0.000 1 0.00 0.00 10.00 10.00 -10.00 -10.00
140 141 0.000000 0.000010 0.00000 0.00 0.00 0.00 0.00000 0.000 1 0.00 0.00 0.00 0.00 0.00 0.00
141 142 0.000000 0.000010 0.00000 0.00 0.00 0.00 0.00000 0.000 1 0.00 0.00 0.00 0.00 0.00 0.00
142 143 0.000000 0.000010 0.00000 0.00 0.00 0.00 1.00000 0.000 1 0.00 0.00 -10.00 -0.00 10.00 0.00
142 144 0.000000 0.000010 0.00000 0.00 0.00 0.00 0.00000 0.000 1 0.00 0.00 10.00 10.00 -10.00 -10.00
144 145 0.000000 0.000010 0.00000 0.00 0.00 0.00 0.00000 0.000 1 0.00 0.00 0.00 0.00 0.00 0.00
145 146 0.000000 0.000010 0.00000 0.00 0.00 0.00 0.00000 0.000 1 0.00 0.00 0.00 0.00 0.00 0.00
146 147 0.000000 0.000010 0.00000 0.00 0.00 0.00 1.00000 0.000 1 0.00 0.00 -10.00 -0.00 10.00 0.00
146 148 0.000000 0.000010 0.00000 0.00 0.00 0.00 0.00000 0.000 1 0.00 0.00 10.00 10.00 -10.00 -10.00
148 149 0.000000 0.000010 0.00000 0.00 0.00 0.00 0.00000 0.000 1 0.00 0.00 0.00 0.00 0.00 0.00
149 150 0.000000 0.000010 0.00000 0.00 0.00 0.00 0.00000 0.000 1 0.00 0.00 0.00 0.00 0.00 0.00
150 151 0.000000 0.000010 0.00000 0.00 0.00 0.00 1.00000 0.000 1 0.00 0.00 -10.00 -0.00 10.00 0.00
150 152 0.000000 0.000010 0.00000 0.00 0.00 0.00 0.00000 0.000 1 0.00 0.00 10.00 10.00 -10.00 -10.00
152 153 0.000000 0.000010 0.00000 0.00 0.00 0.00 0.00000 0.000 1 0.00 0.00 0.00 0.00 0.00 0.00
153 154 0.000000 0.000010 0.00000 0.00 0.00 0.00 0.00000 0.000 1 0.00 0.00 0.00 0.00 0.00 0.00
154 155 0.000000 0.000010 0.00000 0.00 0.00 0.00 1.00000 0.000 1 0.00 0.00 -10.00 -0.00 10.00 0.00
154 156 0.000000 0.000010 0.00000 0.00 0.00 0.00 0.00000 0.000 1 0.00 0.00 10.00 10.00 -10.00 -10.00
156 157 0.000000 0.000010 0.00000 0.00 0.00 0.00 0.00000 0.000 1 0.00 0.00 0.00 0.00 0.00 0.00
157 158 0.000000 0.000010 0.00000 0.00 0.00 0.00 0.00000 0.000 1 0.00 0.00 0.00 0.00 0.00 0.00
158 159 0.000000 0.000010 0.00000 0.00 0.00 0.00 1.00000 0.000 1 0.00 0.00 -10.00 -0.00 10.00 0.00
158 160 0.000000 0.000010 0.00000 0.00 0.00 0.00 0.00000 0.000 1 0.00 0.00 10.00 10.00 -10.00 -10.00
160 161 0.000000 0.000010 0.00000 0.00 0.00 0.00 0.00000 0.000 1 0.00 0.00 0.00 0.00 0.00 0.00
161 162 0.000000 0.000010 0.00000 0.00 0.00 0.00 0.00000 0.000 1 0.00 0.00 0.00 0.00 0.00 0.00
162 163 0.000000 0.000010 0.00000 0.00 0.00 0.00 1.00000 0.000 1 0.00 0.00 -10.00 -0.00 10.00 0.00
162 164 0.000000 0.000010 0.00000 0.00 0.00 0.00 0.00000 0.000 1 0.00 0.00 10.00 10.00 -10.00 -10.00
164 165 0.000000 0.000010 0.00000 0.00 0.00 0.00 0.00000 0.000 1 0.00 0.00 0.00 0.00 0.00 0.00
165 166 0.000000 0.000010 0.00000 0.00 0.00 0.00 0.00000 0.000 1 0.00 0.00 0.00 0.00 0.00 0.00
166 167 0.000000 0.000010 0.00000 0.00 0.00 0.00 1.00000 0.000 1 0.00 0.00 -10.00 -0.00 10.00 0.00
166 168 0.000000 0.000010 0.00000 0.00 0.00 0.00 0.00000 0.000 1 0.00 0.00 10.00 10.00 -10.00 -10.00
168 169 0.000000 0.000010 0.00000 0.00 0.00 0.00 0.00000 0.000 1 0.00 0.00 0.00 0.00 0.00 0.00
169 170 0.000000 0.000010 0.00000 0.00 0.00 0.00 0.00000 0.000 1 0.00 0.00 0.00 0.00 0.00 0.00
170 171 0.000000 0.000010 0.00000 0.00 0.00 0.00 1.00000 0.000 1 0.00 0.00 -10.00 -0.00 10.00 0.00
170 172 0.000000 0.000010 0.00000 0.00 0.00 0.00 0.00000 0.000 1 0.00 0.00 10.00 10.00 -10.00 -10.00
172 173 0.000000 0.000010 0.00000 0.00 0.00 0.00 0.00000 0.000 1 0.00 0.00 0.00 0.00 0.00 0.00
173 174 0.000000 0.000010 0.00000 0.00 0.00 0.00 0.00000 0.000 1 0.00 0.00 0.00 0.00 0.00 0.00
174 175 0.000000 0.000010 0.00000 0.00 0.00 0.00 1.00000 0.000 1 0.00 0.00 -10.00 -0.00 10.00 0.00
174 176 0.000000 0.000010 0.00000 0.00 0.00 0.00 0.00000 0.000 1 0.00 0.00 10.00 10.00 -10.00 -10.00
176 177 0.000000 0.000010 0.00000 0.00 0.00 0.00 0.00000 0.000 1 0.00 0.00 0.00 0.00 0.00 0.00
177 178 0.000000 0.000010 0.00000 0.00 0.00 0.00 0.00000 0.000 1 0.00 0.00 0.00 0.00 0.00 0.00
178 179 0.000000 0.000010 0.00000 0.00 0.00 0.00 1.00000 0.000 1 0.00 0.00 -10.00 -0.00 10.00 0.00
178 180 0.000000 0.000010 0.00000 0.00 0.00 0.00 0.00000 0.000 1 0.00 0.00 10.00 10.00 -10.00 -10.00
180 181 0.000000 0.000010 0.00000 0.00 0.00 0.00 0.00000 0.000 1 0.00 0.00 0.00 0.00 0.00 0.00
181 182 0.000000 0.000010 0.00000 0.00 0.00 0.00 0.00000 0.000 1 0.00 0.00 0.00 0.00 0.00 0.00
182 183 0.000000 0.000010 0.00000 0.00 0.00 0.00 1.00000 0.000 1 0.00 0.00 -10.00 -0.00 10.00 0.00
182 184 0.000000 0.000010 0.00000 0.00 0.00 0.00 0.00000 0.000 1 0.00 0.00 10.00 10.00 -10.00 -10.00
184 185 0.000000 0.000010 0.00000 0.00 0.00 0.00 0.00000 0.000 1 0.00 0.00 0.00 0.00 0.00 0.00
185 186 0.000000 0.000010 0.00000 0.00 0.00 0.00 0.00000 0.000 1 0.00 0.00 0.00 0.00 0.00 0.00
186 187 0.000000 0.000010 0.00000 0.00 0.00 0.00 1.00000 0.000 1 0.00 0.00 -10.00 -0.00 10.00 0.00
186 188 0.000000 0.000010 0.00000 0.00 0.00 0.00 0.00000 0.000 1 0.00 0.00 10.00 10.00 -10.00 -10.00
188 189 0.000000 0.000010 0.00000 0.00 0.00 0.00 0.00000 0.000 1 0.00 0.00 0.00 0.00 0.00 0.00
189 190 0.000000 0.000010 0.00000 0.00 0.00 0.00 0.00000 0.000 1 0.00 0.00 0.00 0.00 0.00 0.00
190 191 0.000000 0.000010 0.00000 0.00 0.00 0.00 1.00000 0.000 1 0.00 0.00 -10.00 -0.00 10.00 0.00
190 192 0.000000 0.000010 0.00000 0.00 0.00 0.00 0.00000 0.000 1 0.00 0.00 10.00 10.00 -10.00 -10.00
...